<configuration>
<input>
<net-file value="tahrirupdated.net.xml"/>
<route-files value="od_route_tahrir.odtrips.rou.xml"/>
</input>
<time>
<begin value="0"/>
<end value="2000"/>
</time>
</configuration>

