<configuration>
    <input>
        <net-file value="tahrirupdated.net.xml"/>
        <route-files value="od_tahrir.odtrips.xml"/>
    </input>
    <output>
        <output-file value="od_route_tahrir.odtrips.rou.xml"/>
    </output>
    <report>
        <xml-validation value="never"/>
        <no-step-log value="true"/>
    </report>
</configuration>