<?xml version='1.0' encoding='utf-8'?>
<routes>
    <vType id="passenger" maxSpeed="13.89" length="4.5" accel="2.6" decel="4.5" sigma="0.5" minGap="2.5" color="255,255,255" />
    <vType id="taxi" maxSpeed="13.89" length="4.5" accel="2.6" decel="4.5" sigma="0.5" minGap="2.5" color="255,200,0" />
    <vType id="microbus" maxSpeed="11.11" length="6.0" accel="2.6" decel="4.5" sigma="0.5" minGap="2.5" color="0,0,255" />
    <vType id="bus" maxSpeed="11.11" length="12.0" accel="2.6" decel="4.5" sigma="0.5" minGap="2.5" color="255,0,0" />
    <vType id="truck" maxSpeed="11.11" length="8.0" accel="2.6" decel="4.5" sigma="0.5" minGap="2.5" color="128,128,128" />
    <vType id="motorcycle" maxSpeed="16.67" length="2.0" accel="2.6" decel="4.5" sigma="0.5" minGap="2.5" color="255,165,0" />
    <vType id="bicycle" maxSpeed="5.56" length="1.8" accel="2.6" decel="4.5" sigma="0.5" minGap="2.5" color="0,200,0" />
    <route id="route_0" edges="29181613#5 10873186#4 10873186#5 10873186#6 10873186#7 10873186#8 10873186#9 10873186#0 10873186#1 10873191#0" />
    <route id="route_1" edges="690516091#0 690516091#1 10873186#9 10873186#0 10873186#1 10873191#0 10873191#1 10873191#2" />
    <route id="route_2" edges="28718647#2 28718647#3 690516091#1 10873186#9 10873186#0 10873186#1 10873191#0" />
    <route id="route_3" edges="-711671304 28718647#3 690516091#1 10873186#9 10873186#0 28718874#0 10873193#0" />
    <route id="route_4" edges="29181613#5 10873186#4 10873186#5 10873186#6 10873186#7 10873186#8 10873186#9 10873186#0 28718874#0 28718874#1" />
    <route id="route_5" edges="10873191#2 10873191#3 10873191#4 10873191#5" />
    <route id="route_6" edges="29181613#1 29181613#2 961982432#0 961982432#1" />
    <route id="route_7" edges="28718647#1 28718647#2 28718647#3 690516091#1 10873186#9 10873186#0 28718874#0 28718874#1 28718874#2" />
    <route id="route_8" edges="29181613#4 29181613#5 10873186#4 192591565#0 192591565#1" />
    <route id="route_9" edges="28718647#1 28718647#2 28718647#3 690516091#1 10873186#9 10873186#0 28718874#0 10873193#0" />
    <route id="route_10" edges="29181613#2 29181613#3 29181613#4 29181613#5" />
    <route id="route_11" edges="50211834#0 50211834#1 10873186#6 305873958#0" />
    <route id="route_12" edges="29181613#5 10873186#4 192591565#0 192591565#1 192591565#2" />
    <route id="route_13" edges="29181613#2 29181613#3 29181613#4 29181613#5 10873186#4 10873186#5 10873186#6 10873186#7 10873186#8 10873186#9 10873186#0 28718874#0 10873193#0 10873193#1 10873193#2" />
    <route id="route_14" edges="28718647#2 28718647#3 690516091#1 10873186#9 10873186#0 28718874#0 10873193#0 10873193#1" />
    <route id="route_15" edges="-711671304 28718647#3 690516091#1 10873186#9 10873186#0 28718874#0 10873193#0 305873957#0" />
    <route id="route_16" edges="50211834#1 10873186#6 10873186#7 10873186#8 10873186#9 10873186#0 28718874#0 10873193#0 10873193#1 10873193#2" />
    <route id="route_17" edges="690516091#1 10873186#9 10873186#0 10873186#1 10873186#2 10873186#3 10873186#4 10873186#5 10873186#6 305873958#0 305873958#1 305873958#2 305873958#3-AddedOnRampEdge" />
    <route id="route_18" edges="29181613#4 29181613#5 10873186#4 10873186#5 10873186#6 10873186#7 10873186#8 10873186#9 10873186#0 10873186#1 10873191#0 10873191#1 10873191#2 10873191#3 10873191#4 10873191#5" />
    <route id="route_19" edges="-711671304 28718647#3 138136500#0 138136500#1" />
    <flow id="flow_0" type="passenger" route="route_0" begin="0" end="600" number="5" departLane="best" departSpeed="random" />
    <flow id="flow_1" type="passenger" route="route_1" begin="0" end="600" number="5" departLane="best" departSpeed="random" />
    <flow id="flow_2" type="passenger" route="route_2" begin="0" end="600" number="5" departLane="best" departSpeed="random" />
    <flow id="flow_3" type="passenger" route="route_3" begin="0" end="600" number="5" departLane="best" departSpeed="random" />
    <flow id="flow_4" type="passenger" route="route_4" begin="0" end="600" number="5" departLane="best" departSpeed="random" />
    <flow id="flow_5" type="passenger" route="route_5" begin="0" end="600" number="5" departLane="best" departSpeed="random" />
    <flow id="flow_6" type="passenger" route="route_6" begin="0" end="600" number="5" departLane="best" departSpeed="random" />
    <flow id="flow_7" type="passenger" route="route_7" begin="0" end="600" number="5" departLane="best" departSpeed="random" />
    <flow id="flow_8" type="passenger" route="route_8" begin="0" end="600" number="5" departLane="best" departSpeed="random" />
    <flow id="flow_9" type="passenger" route="route_9" begin="0" end="600" number="5" departLane="best" departSpeed="random" />
    <flow id="flow_10" type="taxi" route="route_0" begin="0" end="600" number="5" departLane="best" departSpeed="random" />
    <flow id="flow_11" type="taxi" route="route_1" begin="0" end="600" number="5" departLane="best" departSpeed="random" />
    <flow id="flow_12" type="taxi" route="route_2" begin="0" end="600" number="5" departLane="best" departSpeed="random" />
    <flow id="flow_13" type="taxi" route="route_3" begin="0" end="600" number="5" departLane="best" departSpeed="random" />
    <flow id="flow_14" type="taxi" route="route_4" begin="0" end="600" number="5" departLane="best" departSpeed="random" />
    <flow id="flow_15" type="taxi" route="route_5" begin="0" end="600" number="5" departLane="best" departSpeed="random" />
    <flow id="flow_16" type="taxi" route="route_6" begin="0" end="600" number="5" departLane="best" departSpeed="random" />
    <flow id="flow_17" type="taxi" route="route_7" begin="0" end="600" number="5" departLane="best" departSpeed="random" />
    <flow id="flow_18" type="taxi" route="route_8" begin="0" end="600" number="5" departLane="best" departSpeed="random" />
    <flow id="flow_19" type="taxi" route="route_9" begin="0" end="600" number="5" departLane="best" departSpeed="random" />
    <flow id="flow_20" type="microbus" route="route_0" begin="0" end="600" number="5" departLane="best" departSpeed="random" />
    <flow id="flow_21" type="microbus" route="route_1" begin="0" end="600" number="5" departLane="best" departSpeed="random" />
    <flow id="flow_22" type="microbus" route="route_2" begin="0" end="600" number="5" departLane="best" departSpeed="random" />
    <flow id="flow_23" type="microbus" route="route_3" begin="0" end="600" number="5" departLane="best" departSpeed="random" />
    <flow id="flow_24" type="microbus" route="route_4" begin="0" end="600" number="5" departLane="best" departSpeed="random" />
    <flow id="flow_25" type="microbus" route="route_5" begin="0" end="600" number="5" departLane="best" departSpeed="random" />
    <flow id="flow_26" type="microbus" route="route_6" begin="0" end="600" number="5" departLane="best" departSpeed="random" />
    <flow id="flow_27" type="microbus" route="route_7" begin="0" end="600" number="5" departLane="best" departSpeed="random" />
    <flow id="flow_28" type="microbus" route="route_8" begin="0" end="600" number="5" departLane="best" departSpeed="random" />
    <flow id="flow_29" type="microbus" route="route_9" begin="0" end="600" number="5" departLane="best" departSpeed="random" />
    <flow id="flow_30" type="bus" route="route_0" begin="0" end="600" number="5" departLane="best" departSpeed="random" />
    <flow id="flow_31" type="bus" route="route_1" begin="0" end="600" number="5" departLane="best" departSpeed="random" />
    <flow id="flow_32" type="bus" route="route_2" begin="0" end="600" number="5" departLane="best" departSpeed="random" />
    <flow id="flow_33" type="bus" route="route_3" begin="0" end="600" number="5" departLane="best" departSpeed="random" />
    <flow id="flow_34" type="bus" route="route_4" begin="0" end="600" number="5" departLane="best" departSpeed="random" />
    <flow id="flow_35" type="bus" route="route_5" begin="0" end="600" number="5" departLane="best" departSpeed="random" />
    <flow id="flow_36" type="bus" route="route_6" begin="0" end="600" number="5" departLane="best" departSpeed="random" />
    <flow id="flow_37" type="bus" route="route_7" begin="0" end="600" number="5" departLane="best" departSpeed="random" />
    <flow id="flow_38" type="bus" route="route_8" begin="0" end="600" number="5" departLane="best" departSpeed="random" />
    <flow id="flow_39" type="bus" route="route_9" begin="0" end="600" number="5" departLane="best" departSpeed="random" />
    <flow id="flow_40" type="truck" route="route_0" begin="0" end="600" number="5" departLane="best" departSpeed="random" />
    <flow id="flow_41" type="truck" route="route_1" begin="0" end="600" number="5" departLane="best" departSpeed="random" />
    <flow id="flow_42" type="truck" route="route_2" begin="0" end="600" number="5" departLane="best" departSpeed="random" />
    <flow id="flow_43" type="truck" route="route_3" begin="0" end="600" number="5" departLane="best" departSpeed="random" />
    <flow id="flow_44" type="truck" route="route_4" begin="0" end="600" number="5" departLane="best" departSpeed="random" />
    <flow id="flow_45" type="truck" route="route_5" begin="0" end="600" number="5" departLane="best" departSpeed="random" />
    <flow id="flow_46" type="truck" route="route_6" begin="0" end="600" number="5" departLane="best" departSpeed="random" />
    <flow id="flow_47" type="truck" route="route_7" begin="0" end="600" number="5" departLane="best" departSpeed="random" />
    <flow id="flow_48" type="truck" route="route_8" begin="0" end="600" number="5" departLane="best" departSpeed="random" />
    <flow id="flow_49" type="truck" route="route_9" begin="0" end="600" number="5" departLane="best" departSpeed="random" />
    <flow id="flow_50" type="passenger" route="route_0" begin="600" end="1200" number="5" departLane="best" departSpeed="random" />
    <flow id="flow_51" type="passenger" route="route_1" begin="600" end="1200" number="5" departLane="best" departSpeed="random" />
    <flow id="flow_52" type="passenger" route="route_2" begin="600" end="1200" number="5" departLane="best" departSpeed="random" />
    <flow id="flow_53" type="passenger" route="route_3" begin="600" end="1200" number="5" departLane="best" departSpeed="random" />
    <flow id="flow_54" type="passenger" route="route_4" begin="600" end="1200" number="5" departLane="best" departSpeed="random" />
    <flow id="flow_55" type="passenger" route="route_5" begin="600" end="1200" number="5" departLane="best" departSpeed="random" />
    <flow id="flow_56" type="passenger" route="route_6" begin="600" end="1200" number="5" departLane="best" departSpeed="random" />
    <flow id="flow_57" type="passenger" route="route_7" begin="600" end="1200" number="5" departLane="best" departSpeed="random" />
    <flow id="flow_58" type="passenger" route="route_8" begin="600" end="1200" number="5" departLane="best" departSpeed="random" />
    <flow id="flow_59" type="passenger" route="route_9" begin="600" end="1200" number="5" departLane="best" departSpeed="random" />
    <flow id="flow_60" type="taxi" route="route_0" begin="600" end="1200" number="5" departLane="best" departSpeed="random" />
    <flow id="flow_61" type="taxi" route="route_1" begin="600" end="1200" number="5" departLane="best" departSpeed="random" />
    <flow id="flow_62" type="taxi" route="route_2" begin="600" end="1200" number="5" departLane="best" departSpeed="random" />
    <flow id="flow_63" type="taxi" route="route_3" begin="600" end="1200" number="5" departLane="best" departSpeed="random" />
    <flow id="flow_64" type="taxi" route="route_4" begin="600" end="1200" number="5" departLane="best" departSpeed="random" />
    <flow id="flow_65" type="taxi" route="route_5" begin="600" end="1200" number="5" departLane="best" departSpeed="random" />
    <flow id="flow_66" type="taxi" route="route_6" begin="600" end="1200" number="5" departLane="best" departSpeed="random" />
    <flow id="flow_67" type="taxi" route="route_7" begin="600" end="1200" number="5" departLane="best" departSpeed="random" />
    <flow id="flow_68" type="taxi" route="route_8" begin="600" end="1200" number="5" departLane="best" departSpeed="random" />
    <flow id="flow_69" type="taxi" route="route_9" begin="600" end="1200" number="5" departLane="best" departSpeed="random" />
    <flow id="flow_70" type="microbus" route="route_0" begin="600" end="1200" number="5" departLane="best" departSpeed="random" />
    <flow id="flow_71" type="microbus" route="route_1" begin="600" end="1200" number="5" departLane="best" departSpeed="random" />
    <flow id="flow_72" type="microbus" route="route_2" begin="600" end="1200" number="5" departLane="best" departSpeed="random" />
    <flow id="flow_73" type="microbus" route="route_3" begin="600" end="1200" number="5" departLane="best" departSpeed="random" />
    <flow id="flow_74" type="microbus" route="route_4" begin="600" end="1200" number="5" departLane="best" departSpeed="random" />
    <flow id="flow_75" type="microbus" route="route_5" begin="600" end="1200" number="5" departLane="best" departSpeed="random" />
    <flow id="flow_76" type="microbus" route="route_6" begin="600" end="1200" number="5" departLane="best" departSpeed="random" />
    <flow id="flow_77" type="microbus" route="route_7" begin="600" end="1200" number="5" departLane="best" departSpeed="random" />
    <flow id="flow_78" type="microbus" route="route_8" begin="600" end="1200" number="5" departLane="best" departSpeed="random" />
    <flow id="flow_79" type="microbus" route="route_9" begin="600" end="1200" number="5" departLane="best" departSpeed="random" />
    <flow id="flow_80" type="bus" route="route_0" begin="600" end="1200" number="5" departLane="best" departSpeed="random" />
    <flow id="flow_81" type="bus" route="route_1" begin="600" end="1200" number="5" departLane="best" departSpeed="random" />
    <flow id="flow_82" type="bus" route="route_2" begin="600" end="1200" number="5" departLane="best" departSpeed="random" />
    <flow id="flow_83" type="bus" route="route_3" begin="600" end="1200" number="5" departLane="best" departSpeed="random" />
    <flow id="flow_84" type="bus" route="route_4" begin="600" end="1200" number="5" departLane="best" departSpeed="random" />
    <flow id="flow_85" type="bus" route="route_5" begin="600" end="1200" number="5" departLane="best" departSpeed="random" />
    <flow id="flow_86" type="bus" route="route_6" begin="600" end="1200" number="5" departLane="best" departSpeed="random" />
    <flow id="flow_87" type="bus" route="route_7" begin="600" end="1200" number="5" departLane="best" departSpeed="random" />
    <flow id="flow_88" type="bus" route="route_8" begin="600" end="1200" number="5" departLane="best" departSpeed="random" />
    <flow id="flow_89" type="bus" route="route_9" begin="600" end="1200" number="5" departLane="best" departSpeed="random" />
    <flow id="flow_90" type="truck" route="route_0" begin="600" end="1200" number="5" departLane="best" departSpeed="random" />
    <flow id="flow_91" type="truck" route="route_1" begin="600" end="1200" number="5" departLane="best" departSpeed="random" />
    <flow id="flow_92" type="truck" route="route_2" begin="600" end="1200" number="5" departLane="best" departSpeed="random" />
    <flow id="flow_93" type="truck" route="route_3" begin="600" end="1200" number="5" departLane="best" departSpeed="random" />
    <flow id="flow_94" type="truck" route="route_4" begin="600" end="1200" number="5" departLane="best" departSpeed="random" />
    <flow id="flow_95" type="truck" route="route_5" begin="600" end="1200" number="5" departLane="best" departSpeed="random" />
    <flow id="flow_96" type="truck" route="route_6" begin="600" end="1200" number="5" departLane="best" departSpeed="random" />
    <flow id="flow_97" type="truck" route="route_7" begin="600" end="1200" number="5" departLane="best" departSpeed="random" />
    <flow id="flow_98" type="truck" route="route_8" begin="600" end="1200" number="5" departLane="best" departSpeed="random" />
    <flow id="flow_99" type="truck" route="route_9" begin="600" end="1200" number="5" departLane="best" departSpeed="random" />
    <flow id="flow_100" type="passenger" route="route_0" begin="1200" end="1800" number="5" departLane="best" departSpeed="random" />
    <flow id="flow_101" type="passenger" route="route_1" begin="1200" end="1800" number="5" departLane="best" departSpeed="random" />
    <flow id="flow_102" type="passenger" route="route_2" begin="1200" end="1800" number="5" departLane="best" departSpeed="random" />
    <flow id="flow_103" type="passenger" route="route_3" begin="1200" end="1800" number="5" departLane="best" departSpeed="random" />
    <flow id="flow_104" type="passenger" route="route_4" begin="1200" end="1800" number="5" departLane="best" departSpeed="random" />
    <flow id="flow_105" type="passenger" route="route_5" begin="1200" end="1800" number="5" departLane="best" departSpeed="random" />
    <flow id="flow_106" type="passenger" route="route_6" begin="1200" end="1800" number="5" departLane="best" departSpeed="random" />
    <flow id="flow_107" type="passenger" route="route_7" begin="1200" end="1800" number="5" departLane="best" departSpeed="random" />
    <flow id="flow_108" type="passenger" route="route_8" begin="1200" end="1800" number="5" departLane="best" departSpeed="random" />
    <flow id="flow_109" type="passenger" route="route_9" begin="1200" end="1800" number="5" departLane="best" departSpeed="random" />
    <flow id="flow_110" type="taxi" route="route_0" begin="1200" end="1800" number="5" departLane="best" departSpeed="random" />
    <flow id="flow_111" type="taxi" route="route_1" begin="1200" end="1800" number="5" departLane="best" departSpeed="random" />
    <flow id="flow_112" type="taxi" route="route_2" begin="1200" end="1800" number="5" departLane="best" departSpeed="random" />
    <flow id="flow_113" type="taxi" route="route_3" begin="1200" end="1800" number="5" departLane="best" departSpeed="random" />
    <flow id="flow_114" type="taxi" route="route_4" begin="1200" end="1800" number="5" departLane="best" departSpeed="random" />
    <flow id="flow_115" type="taxi" route="route_5" begin="1200" end="1800" number="5" departLane="best" departSpeed="random" />
    <flow id="flow_116" type="taxi" route="route_6" begin="1200" end="1800" number="5" departLane="best" departSpeed="random" />
    <flow id="flow_117" type="taxi" route="route_7" begin="1200" end="1800" number="5" departLane="best" departSpeed="random" />
    <flow id="flow_118" type="taxi" route="route_8" begin="1200" end="1800" number="5" departLane="best" departSpeed="random" />
    <flow id="flow_119" type="taxi" route="route_9" begin="1200" end="1800" number="5" departLane="best" departSpeed="random" />
    <flow id="flow_120" type="microbus" route="route_0" begin="1200" end="1800" number="5" departLane="best" departSpeed="random" />
    <flow id="flow_121" type="microbus" route="route_1" begin="1200" end="1800" number="5" departLane="best" departSpeed="random" />
    <flow id="flow_122" type="microbus" route="route_2" begin="1200" end="1800" number="5" departLane="best" departSpeed="random" />
    <flow id="flow_123" type="microbus" route="route_3" begin="1200" end="1800" number="5" departLane="best" departSpeed="random" />
    <flow id="flow_124" type="microbus" route="route_4" begin="1200" end="1800" number="5" departLane="best" departSpeed="random" />
    <flow id="flow_125" type="microbus" route="route_5" begin="1200" end="1800" number="5" departLane="best" departSpeed="random" />
    <flow id="flow_126" type="microbus" route="route_6" begin="1200" end="1800" number="5" departLane="best" departSpeed="random" />
    <flow id="flow_127" type="microbus" route="route_7" begin="1200" end="1800" number="5" departLane="best" departSpeed="random" />
    <flow id="flow_128" type="microbus" route="route_8" begin="1200" end="1800" number="5" departLane="best" departSpeed="random" />
    <flow id="flow_129" type="microbus" route="route_9" begin="1200" end="1800" number="5" departLane="best" departSpeed="random" />
    <flow id="flow_130" type="bus" route="route_0" begin="1200" end="1800" number="5" departLane="best" departSpeed="random" />
    <flow id="flow_131" type="bus" route="route_1" begin="1200" end="1800" number="5" departLane="best" departSpeed="random" />
    <flow id="flow_132" type="bus" route="route_2" begin="1200" end="1800" number="5" departLane="best" departSpeed="random" />
    <flow id="flow_133" type="bus" route="route_3" begin="1200" end="1800" number="5" departLane="best" departSpeed="random" />
    <flow id="flow_134" type="bus" route="route_4" begin="1200" end="1800" number="5" departLane="best" departSpeed="random" />
    <flow id="flow_135" type="bus" route="route_5" begin="1200" end="1800" number="5" departLane="best" departSpeed="random" />
    <flow id="flow_136" type="bus" route="route_6" begin="1200" end="1800" number="5" departLane="best" departSpeed="random" />
    <flow id="flow_137" type="bus" route="route_7" begin="1200" end="1800" number="5" departLane="best" departSpeed="random" />
    <flow id="flow_138" type="bus" route="route_8" begin="1200" end="1800" number="5" departLane="best" departSpeed="random" />
    <flow id="flow_139" type="bus" route="route_9" begin="1200" end="1800" number="5" departLane="best" departSpeed="random" />
    <flow id="flow_140" type="truck" route="route_0" begin="1200" end="1800" number="5" departLane="best" departSpeed="random" />
    <flow id="flow_141" type="truck" route="route_1" begin="1200" end="1800" number="5" departLane="best" departSpeed="random" />
    <flow id="flow_142" type="truck" route="route_2" begin="1200" end="1800" number="5" departLane="best" departSpeed="random" />
    <flow id="flow_143" type="truck" route="route_3" begin="1200" end="1800" number="5" departLane="best" departSpeed="random" />
    <flow id="flow_144" type="truck" route="route_4" begin="1200" end="1800" number="5" departLane="best" departSpeed="random" />
    <flow id="flow_145" type="truck" route="route_5" begin="1200" end="1800" number="5" departLane="best" departSpeed="random" />
    <flow id="flow_146" type="truck" route="route_6" begin="1200" end="1800" number="5" departLane="best" departSpeed="random" />
    <flow id="flow_147" type="truck" route="route_7" begin="1200" end="1800" number="5" departLane="best" departSpeed="random" />
    <flow id="flow_148" type="truck" route="route_8" begin="1200" end="1800" number="5" departLane="best" departSpeed="random" />
    <flow id="flow_149" type="truck" route="route_9" begin="1200" end="1800" number="5" departLane="best" departSpeed="random" />
    <flow id="flow_150" type="passenger" route="route_0" begin="1800" end="2400" number="5" departLane="best" departSpeed="random" />
    <flow id="flow_151" type="passenger" route="route_1" begin="1800" end="2400" number="5" departLane="best" departSpeed="random" />
    <flow id="flow_152" type="passenger" route="route_2" begin="1800" end="2400" number="5" departLane="best" departSpeed="random" />
    <flow id="flow_153" type="passenger" route="route_3" begin="1800" end="2400" number="5" departLane="best" departSpeed="random" />
    <flow id="flow_154" type="passenger" route="route_4" begin="1800" end="2400" number="5" departLane="best" departSpeed="random" />
    <flow id="flow_155" type="passenger" route="route_5" begin="1800" end="2400" number="5" departLane="best" departSpeed="random" />
    <flow id="flow_156" type="passenger" route="route_6" begin="1800" end="2400" number="5" departLane="best" departSpeed="random" />
    <flow id="flow_157" type="passenger" route="route_7" begin="1800" end="2400" number="5" departLane="best" departSpeed="random" />
    <flow id="flow_158" type="passenger" route="route_8" begin="1800" end="2400" number="5" departLane="best" departSpeed="random" />
    <flow id="flow_159" type="passenger" route="route_9" begin="1800" end="2400" number="5" departLane="best" departSpeed="random" />
    <flow id="flow_160" type="taxi" route="route_0" begin="1800" end="2400" number="5" departLane="best" departSpeed="random" />
    <flow id="flow_161" type="taxi" route="route_1" begin="1800" end="2400" number="5" departLane="best" departSpeed="random" />
    <flow id="flow_162" type="taxi" route="route_2" begin="1800" end="2400" number="5" departLane="best" departSpeed="random" />
    <flow id="flow_163" type="taxi" route="route_3" begin="1800" end="2400" number="5" departLane="best" departSpeed="random" />
    <flow id="flow_164" type="taxi" route="route_4" begin="1800" end="2400" number="5" departLane="best" departSpeed="random" />
    <flow id="flow_165" type="taxi" route="route_5" begin="1800" end="2400" number="5" departLane="best" departSpeed="random" />
    <flow id="flow_166" type="taxi" route="route_6" begin="1800" end="2400" number="5" departLane="best" departSpeed="random" />
    <flow id="flow_167" type="taxi" route="route_7" begin="1800" end="2400" number="5" departLane="best" departSpeed="random" />
    <flow id="flow_168" type="taxi" route="route_8" begin="1800" end="2400" number="5" departLane="best" departSpeed="random" />
    <flow id="flow_169" type="taxi" route="route_9" begin="1800" end="2400" number="5" departLane="best" departSpeed="random" />
    <flow id="flow_170" type="microbus" route="route_0" begin="1800" end="2400" number="5" departLane="best" departSpeed="random" />
    <flow id="flow_171" type="microbus" route="route_1" begin="1800" end="2400" number="5" departLane="best" departSpeed="random" />
    <flow id="flow_172" type="microbus" route="route_2" begin="1800" end="2400" number="5" departLane="best" departSpeed="random" />
    <flow id="flow_173" type="microbus" route="route_3" begin="1800" end="2400" number="5" departLane="best" departSpeed="random" />
    <flow id="flow_174" type="microbus" route="route_4" begin="1800" end="2400" number="5" departLane="best" departSpeed="random" />
    <flow id="flow_175" type="microbus" route="route_5" begin="1800" end="2400" number="5" departLane="best" departSpeed="random" />
    <flow id="flow_176" type="microbus" route="route_6" begin="1800" end="2400" number="5" departLane="best" departSpeed="random" />
    <flow id="flow_177" type="microbus" route="route_7" begin="1800" end="2400" number="5" departLane="best" departSpeed="random" />
    <flow id="flow_178" type="microbus" route="route_8" begin="1800" end="2400" number="5" departLane="best" departSpeed="random" />
    <flow id="flow_179" type="microbus" route="route_9" begin="1800" end="2400" number="5" departLane="best" departSpeed="random" />
    <flow id="flow_180" type="bus" route="route_0" begin="1800" end="2400" number="5" departLane="best" departSpeed="random" />
    <flow id="flow_181" type="bus" route="route_1" begin="1800" end="2400" number="5" departLane="best" departSpeed="random" />
    <flow id="flow_182" type="bus" route="route_2" begin="1800" end="2400" number="5" departLane="best" departSpeed="random" />
    <flow id="flow_183" type="bus" route="route_3" begin="1800" end="2400" number="5" departLane="best" departSpeed="random" />
    <flow id="flow_184" type="bus" route="route_4" begin="1800" end="2400" number="5" departLane="best" departSpeed="random" />
    <flow id="flow_185" type="bus" route="route_5" begin="1800" end="2400" number="5" departLane="best" departSpeed="random" />
    <flow id="flow_186" type="bus" route="route_6" begin="1800" end="2400" number="5" departLane="best" departSpeed="random" />
    <flow id="flow_187" type="bus" route="route_7" begin="1800" end="2400" number="5" departLane="best" departSpeed="random" />
    <flow id="flow_188" type="bus" route="route_8" begin="1800" end="2400" number="5" departLane="best" departSpeed="random" />
    <flow id="flow_189" type="bus" route="route_9" begin="1800" end="2400" number="5" departLane="best" departSpeed="random" />
    <flow id="flow_190" type="truck" route="route_0" begin="1800" end="2400" number="5" departLane="best" departSpeed="random" />
    <flow id="flow_191" type="truck" route="route_1" begin="1800" end="2400" number="5" departLane="best" departSpeed="random" />
    <flow id="flow_192" type="truck" route="route_2" begin="1800" end="2400" number="5" departLane="best" departSpeed="random" />
    <flow id="flow_193" type="truck" route="route_3" begin="1800" end="2400" number="5" departLane="best" departSpeed="random" />
    <flow id="flow_194" type="truck" route="route_4" begin="1800" end="2400" number="5" departLane="best" departSpeed="random" />
    <flow id="flow_195" type="truck" route="route_5" begin="1800" end="2400" number="5" departLane="best" departSpeed="random" />
    <flow id="flow_196" type="truck" route="route_6" begin="1800" end="2400" number="5" departLane="best" departSpeed="random" />
    <flow id="flow_197" type="truck" route="route_7" begin="1800" end="2400" number="5" departLane="best" departSpeed="random" />
    <flow id="flow_198" type="truck" route="route_8" begin="1800" end="2400" number="5" departLane="best" departSpeed="random" />
    <flow id="flow_199" type="truck" route="route_9" begin="1800" end="2400" number="5" departLane="best" departSpeed="random" />
    <flow id="flow_200" type="passenger" route="route_0" begin="2400" end="3000" number="5" departLane="best" departSpeed="random" />
    <flow id="flow_201" type="passenger" route="route_1" begin="2400" end="3000" number="5" departLane="best" departSpeed="random" />
    <flow id="flow_202" type="passenger" route="route_2" begin="2400" end="3000" number="5" departLane="best" departSpeed="random" />
    <flow id="flow_203" type="passenger" route="route_3" begin="2400" end="3000" number="5" departLane="best" departSpeed="random" />
    <flow id="flow_204" type="passenger" route="route_4" begin="2400" end="3000" number="5" departLane="best" departSpeed="random" />