<?xml version='1.0' encoding='utf-8'?>
<routes>
    <vType id="passenger" maxSpeed="13.89" length="4.5" accel="2.6" decel="4.5" sigma="0.5" minGap="2.5" color="255,255,255" />
    <vType id="taxi" maxSpeed="13.89" length="4.5" accel="2.6" decel="4.5" sigma="0.5" minGap="2.5" color="255,200,0" />
    <vType id="microbus" maxSpeed="11.11" length="6.0" accel="2.6" decel="4.5" sigma="0.5" minGap="2.5" color="0,100,255" />
    <vType id="bus" maxSpeed="11.11" length="12.0" accel="2.6" decel="4.5" sigma="0.5" minGap="2.5" color="255,0,0" />
    <vType id="truck" maxSpeed="11.11" length="8.0" accel="2.6" decel="4.5" sigma="0.5" minGap="2.5" color="128,128,128" />
    <vType id="motorcycle" maxSpeed="16.67" length="2.0" accel="2.6" decel="4.5" sigma="0.5" minGap="2.5" color="255,165,0" />
    <vType id="bicycle" maxSpeed="5.56" length="1.8" accel="2.6" decel="4.5" sigma="0.5" minGap="2.5" color="0,200,0" />
    <route id="route_0" edges="29181613#5 10873186#4 10873186#5 10873186#6 10873186#7 10873186#8 10873186#9 10873186#0 10873186#1 10873191#0" />
    <route id="route_1" edges="690516091#0 690516091#1 10873186#9 10873186#0 10873186#1 10873191#0 10873191#1 10873191#2" />
    <route id="route_2" edges="28718647#2 28718647#3 690516091#1 10873186#9 10873186#0 10873186#1 10873191#0" />
    <route id="route_3" edges="-711671304 28718647#3 690516091#1 10873186#9 10873186#0 28718874#0 10873193#0" />
    <route id="route_4" edges="29181613#5 10873186#4 10873186#5 10873186#6 10873186#7 10873186#8 10873186#9 10873186#0 28718874#0 28718874#1" />
    <route id="route_5" edges="10873191#2 10873191#3 10873191#4 10873191#5" />
    <route id="route_6" edges="29181613#1 29181613#2 961982432#0 961982432#1" />
    <route id="route_7" edges="28718647#1 28718647#2 28718647#3 690516091#1 10873186#9 10873186#0 28718874#0 28718874#1 28718874#2" />
    <route id="route_8" edges="29181613#4 29181613#5 10873186#4 192591565#0 192591565#1" />
    <route id="route_9" edges="28718647#1 28718647#2 28718647#3 690516091#1 10873186#9 10873186#0 28718874#0 10873193#0" />
    <route id="route_10" edges="29181613#2 29181613#3 29181613#4 29181613#5" />
    <route id="route_11" edges="50211834#0 50211834#1 10873186#6 305873958#0" />
    <route id="route_12" edges="29181613#5 10873186#4 192591565#0 192591565#1 192591565#2" />
    <route id="route_13" edges="29181613#2 29181613#3 29181613#4 29181613#5 10873186#4 10873186#5 10873186#6 10873186#7 10873186#8 10873186#9 10873186#0 28718874#0 10873193#0 10873193#1 10873193#2" />
    <route id="route_14" edges="28718647#2 28718647#3 690516091#1 10873186#9 10873186#0 28718874#0 10873193#0 10873193#1" />
    <route id="route_15" edges="-711671304 28718647#3 690516091#1 10873186#9 10873186#0 28718874#0 10873193#0 305873957#0" />
    <route id="route_16" edges="50211834#1 10873186#6 10873186#7 10873186#8 10873186#9 10873186#0 28718874#0 10873193#0 10873193#1 10873193#2" />
    <route id="route_17" edges="690516091#1 10873186#9 10873186#0 10873186#1 10873186#2 10873186#3 10873186#4 10873186#5 10873186#6 305873958#0 305873958#1 305873958#2 305873958#3-AddedOnRampEdge" />
    <route id="route_18" edges="29181613#4 29181613#5 10873186#4 10873186#5 10873186#6 10873186#7 10873186#8 10873186#9 10873186#0 10873186#1 10873191#0 10873191#1 10873191#2 10873191#3 10873191#4 10873191#5" />
    <route id="route_19" edges="-711671304 28718647#3 138136500#0 138136500#1" />
    <flow id="flow_0" type="passenger" route="route_0" begin="54000" end="54600" number="9" departLane="best" departSpeed="random" />
    <flow id="flow_1" type="passenger" route="route_1" begin="54000" end="54600" number="9" departLane="best" departSpeed="random" />
    <flow id="flow_2" type="passenger" route="route_2" begin="54000" end="54600" number="9" departLane="best" departSpeed="random" />
    <flow id="flow_3" type="passenger" route="route_3" begin="54000" end="54600" number="9" departLane="best" departSpeed="random" />
    <flow id="flow_4" type="passenger" route="route_4" begin="54000" end="54600" number="9" departLane="best" departSpeed="random" />
    <flow id="flow_5" type="passenger" route="route_5" begin="54000" end="54600" number="9" departLane="best" departSpeed="random" />
    <flow id="flow_6" type="passenger" route="route_6" begin="54000" end="54600" number="9" departLane="best" departSpeed="random" />
    <flow id="flow_7" type="passenger" route="route_7" begin="54000" end="54600" number="9" departLane="best" departSpeed="random" />
    <flow id="flow_8" type="passenger" route="route_8" begin="54000" end="54600" number="9" departLane="best" departSpeed="random" />
    <flow id="flow_9" type="passenger" route="route_9" begin="54000" end="54600" number="9" departLane="best" departSpeed="random" />
    <flow id="flow_10" type="passenger" route="route_10" begin="54000" end="54600" number="9" departLane="best" departSpeed="random" />
    <flow id="flow_11" type="passenger" route="route_11" begin="54000" end="54600" number="9" departLane="best" departSpeed="random" />
    <flow id="flow_12" type="passenger" route="route_12" begin="54000" end="54600" number="9" departLane="best" departSpeed="random" />
    <flow id="flow_13" type="passenger" route="route_13" begin="54000" end="54600" number="9" departLane="best" departSpeed="random" />
    <flow id="flow_14" type="passenger" route="route_14" begin="54000" end="54600" number="9" departLane="best" departSpeed="random" />
    <flow id="flow_15" type="passenger" route="route_15" begin="54000" end="54600" number="9" departLane="best" departSpeed="random" />
    <flow id="flow_16" type="passenger" route="route_16" begin="54000" end="54600" number="9" departLane="best" departSpeed="random" />
    <flow id="flow_17" type="passenger" route="route_17" begin="54000" end="54600" number="9" departLane="best" departSpeed="random" />
    <flow id="flow_18" type="passenger" route="route_18" begin="54000" end="54600" number="9" departLane="best" departSpeed="random" />
    <flow id="flow_19" type="passenger" route="route_19" begin="54000" end="54600" number="9" departLane="best" departSpeed="random" />
    <vehicle id="microbus_20" type="microbus" depart="54001" departLane="best" departSpeed="random">
        <route edges="29181613#5 10873186#4 192591565#0 192591565#1 192591565#2" />
        <stop lane="192591565#0_0" startPos="13.4" endPos="23.4" duration="24" parking="false" />
        <stop lane="192591565#1_0" startPos="10.0" endPos="20.0" duration="21" parking="false" />
    </vehicle>
    <vehicle id="microbus_21" type="microbus" depart="54013" departLane="best" departSpeed="random">
        <route edges="28718647#1 28718647#2 28718647#3 690516091#1 10873186#9 10873186#0 28718874#0 28718874#1 28718874#2" />
        <stop lane="28718874#0_0" startPos="11.8" endPos="21.8" duration="19" parking="false" />
        <stop lane="28718874#1_0" startPos="13.4" endPos="23.4" duration="29" parking="false" />
    </vehicle>
    <vehicle id="microbus_22" type="microbus" depart="54018" departLane="best" departSpeed="random">
        <route edges="29181613#2 29181613#3 29181613#4 29181613#5" />
    </vehicle>
    <vehicle id="microbus_23" type="microbus" depart="54025" departLane="best" departSpeed="random">
        <route edges="-711671304 28718647#3 138136500#0 138136500#1" />
    </vehicle>
    <vehicle id="microbus_24" type="microbus" depart="54030" departLane="best" departSpeed="random">
        <route edges="-711671304 28718647#3 138136500#0 138136500#1" />
    </vehicle>
    <vehicle id="microbus_25" type="microbus" depart="54036" departLane="best" departSpeed="random">
        <route edges="10873191#2 10873191#3 10873191#4 10873191#5" />
    </vehicle>
    <vehicle id="microbus_26" type="microbus" depart="54043" departLane="best" departSpeed="random">
        <route edges="-711671304 28718647#3 690516091#1 10873186#9 10873186#0 28718874#0 10873193#0" />
        <stop lane="28718874#0_0" startPos="7.9" endPos="17.9" duration="50" parking="false" />
        <stop lane="10873193#0_0" startPos="6.9" endPos="16.9" duration="28" parking="false" />
    </vehicle>
    <vehicle id="microbus_27" type="microbus" depart="54049" departLane="best" departSpeed="random">
        <route edges="28718647#2 28718647#3 690516091#1 10873186#9 10873186#0 10873186#1 10873191#0" />
    </vehicle>
    <vehicle id="microbus_28" type="microbus" depart="54057" departLane="best" departSpeed="random">
        <route edges="690516091#0 690516091#1 10873186#9 10873186#0 10873186#1 10873191#0 10873191#1 10873191#2" />
    </vehicle>
    <vehicle id="microbus_29" type="microbus" depart="54065" departLane="best" departSpeed="random">
        <route edges="29181613#4 29181613#5 10873186#4 192591565#0 192591565#1" />
        <stop lane="192591565#0_0" startPos="14.6" endPos="24.6" duration="20" parking="false" />
        <stop lane="192591565#1_0" startPos="11.3" endPos="21.3" duration="11" parking="false" />
    </vehicle>
    <vehicle id="microbus_30" type="microbus" depart="54076" departLane="best" departSpeed="random">
        <route edges="50211834#1 10873186#6 10873186#7 10873186#8 10873186#9 10873186#0 28718874#0 10873193#0 10873193#1 10873193#2" />
        <stop lane="50211834#1_0" startPos="8.4" endPos="18.4" duration="54" parking="false" />
        <stop lane="28718874#0_0" startPos="6.9" endPos="16.9" duration="31" parking="false" />
        <stop lane="10873193#0_0" startPos="9.6" endPos="19.6" duration="11" parking="false" />
        <stop lane="10873193#1_0" startPos="7.2" endPos="17.2" duration="31" parking="false" />
    </vehicle>
    <vehicle id="microbus_31" type="microbus" depart="54081" departLane="best" departSpeed="random">
        <route edges="28718647#2 28718647#3 690516091#1 10873186#9 10873186#0 28718874#0 10873193#0 10873193#1" />
        <stop lane="28718874#0_0" startPos="8.9" endPos="18.9" duration="14" parking="false" />
        <stop lane="10873193#0_0" startPos="6.1" endPos="16.1" duration="58" parking="false" />
        <stop lane="10873193#1_0" startPos="11.5" endPos="21.5" duration="25" parking="false" />
    </vehicle>
    <vehicle id="microbus_32" type="microbus" depart="54089" departLane="best" departSpeed="random">
        <route edges="29181613#2 29181613#3 29181613#4 29181613#5 10873186#4 10873186#5 10873186#6 10873186#7 10873186#8 10873186#9 10873186#0 28718874#0 10873193#0 10873193#1 10873193#2" />
        <stop lane="28718874#0_0" startPos="12.4" endPos="22.4" duration="19" parking="false" />
        <stop lane="10873193#0_0" startPos="6.9" endPos="16.9" duration="26" parking="false" />
        <stop lane="10873193#1_0" startPos="7.0" endPos="17.0" duration="37" parking="false" />
    </vehicle>
    <vehicle id="microbus_33" type="microbus" depart="54093" departLane="best" departSpeed="random">
        <route edges="10873191#2 10873191#3 10873191#4 10873191#5" />
    </vehicle>
    <vehicle id="microbus_34" type="microbus" depart="54101" departLane="best" departSpeed="random">
        <route edges="29181613#5 10873186#4 10873186#5 10873186#6 10873186#7 10873186#8 10873186#9 10873186#0 28718874#0 28718874#1" />
        <stop lane="28718874#0_0" startPos="12.6" endPos="22.6" duration="14" parking="false" />
        <stop lane="28718874#1_0" startPos="6.0" endPos="16.0" duration="18" parking="false" />
    </vehicle>
    <vehicle id="microbus_35" type="microbus" depart="54111" departLane="best" departSpeed="random">
        <route edges="690516091#0 690516091#1 10873186#9 10873186#0 10873186#1 10873191#0 10873191#1 10873191#2" />
    </vehicle>
    <vehicle id="microbus_36" type="microbus" depart="54114" departLane="best" departSpeed="random">
        <route edges="-711671304 28718647#3 690516091#1 10873186#9 10873186#0 28718874#0 10873193#0 305873957#0" />
        <stop lane="28718874#0_0" startPos="8.5" endPos="18.5" duration="13" parking="false" />
        <stop lane="10873193#0_0" startPos="14.9" endPos="24.9" duration="25" parking="false" />
    </vehicle>
    <vehicle id="microbus_37" type="microbus" depart="54120" departLane="best" departSpeed="random">
        <route edges="50211834#0 50211834#1 10873186#6 305873958#0" />
        <stop lane="50211834#0_0" startPos="11.5" endPos="21.5" duration="59" parking="false" />
        <stop lane="50211834#1_0" startPos="5.4" endPos="15.4" duration="40" parking="false" />
    </vehicle>
    <vehicle id="microbus_38" type="microbus" depart="54132" departLane="best" departSpeed="random">
        <route edges="29181613#5 10873186#4 10873186#5 10873186#6 10873186#7 10873186#8 10873186#9 10873186#0 28718874#0 28718874#1" />
        <stop lane="28718874#0_0" startPos="10.7" endPos="20.7" duration="54" parking="false" />
        <stop lane="28718874#1_0" startPos="11.1" endPos="21.1" duration="24" parking="false" />
    </vehicle>
    <vehicle id="microbus_39" type="microbus" depart="54135" departLane="best" departSpeed="random">
        <route edges="29181613#4 29181613#5 10873186#4 10873186#5 10873186#6 10873186#7 10873186#8 10873186#9 10873186#0 10873186#1 10873191#0 10873191#1 10873191#2 10873191#3 10873191#4 10873191#5" />
    </vehicle>
    <vehicle id="microbus_40" type="microbus" depart="54142" departLane="best" departSpeed="random">
        <route edges="50211834#0 50211834#1 10873186#6 305873958#0" />
        <stop lane="50211834#0_0" startPos="13.7" endPos="23.7" duration="49" parking="false" />
        <stop lane="50211834#1_0" startPos="12.9" endPos="22.9" duration="32" parking="false" />
    </vehicle>
    <vehicle id="microbus_41" type="microbus" depart="54149" departLane="best" departSpeed="random">
        <route edges="28718647#1 28718647#2 28718647#3 690516091#1 10873186#9 10873186#0 28718874#0 10873193#0" />
        <stop lane="28718874#0_0" startPos="9.4" endPos="19.4" duration="42" parking="false" />
        <stop lane="10873193#0_0" startPos="11.7" endPos="21.7" duration="32" parking="false" />
    </vehicle>
    <vehicle id="microbus_42" type="microbus" depart="54159" departLane="best" departSpeed="random">
        <route edges="50211834#1 10873186#6 10873186#7 10873186#8 10873186#9 10873186#0 28718874#0 10873193#0 10873193#1 10873193#2" />
        <stop lane="50211834#1_0" startPos="8.5" endPos="18.5" duration="25" parking="false" />
        <stop lane="28718874#0_0" startPos="11.2" endPos="21.2" duration="40" parking="false" />
        <stop lane="10873193#0_0" startPos="14.7" endPos="24.7" duration="35" parking="false" />
        <stop lane="10873193#1_0" startPos="6.5" endPos="16.5" duration="56" parking="false" />
    </vehicle>
    <vehicle id="microbus_43" type="microbus" depart="54167" departLane="best" departSpeed="random">
        <route edges="28718647#2 28718647#3 690516091#1 10873186#9 10873186#0 10873186#1 10873191#0" />
    </vehicle>
    <vehicle id="microbus_44" type="microbus" depart="54169" departLane="best" departSpeed="random">
        <route edges="28718647#1 28718647#2 28718647#3 690516091#1 10873186#9 10873186#0 28718874#0 10873193#0" />
        <stop lane="28718874#0_0" startPos="12.5" endPos="22.5" duration="55" parking="false" />
        <stop lane="10873193#0_0" startPos="9.2" endPos="19.2" duration="37" parking="false" />
    </vehicle>
    <vehicle id="microbus_45" type="microbus" depart="54181" departLane="best" departSpeed="random">
        <route edges="29181613#5 10873186#4 192591565#0 192591565#1 192591565#2" />
        <stop lane="192591565#0_0" startPos="9.1" endPos="19.1" duration="23" parking="false" />
        <stop lane="192591565#1_0" startPos="8.5" endPos="18.5" duration="56" parking="false" />
    </vehicle>
    <vehicle id="microbus_46" type="microbus" depart="54187" departLane="best" departSpeed="random">
        <route edges="10873191#2 10873191#3 10873191#4 10873191#5" />
    </vehicle>
    <vehicle id="microbus_47" type="microbus" depart="54190" departLane="best" departSpeed="random">
        <route edges="29181613#4 29181613#5 10873186#4 10873186#5 10873186#6 10873186#7 10873186#8 10873186#9 10873186#0 10873186#1 10873191#0 10873191#1 10873191#2 10873191#3 10873191#4 10873191#5" />
    </vehicle>
    <vehicle id="microbus_48" type="microbus" depart="54198" departLane="best" departSpeed="random">
        <route edges="690516091#0 690516091#1 10873186#9 10873186#0 10873186#1 10873191#0 10873191#1 10873191#2" />
    </vehicle>
    <vehicle id="microbus_49" type="microbus" depart="54208" departLane="best" departSpeed="random">
        <route edges="50211834#0 50211834#1 10873186#6 305873958#0" />
        <stop lane="50211834#0_0" startPos="13.9" endPos="23.9" duration="46" parking="false" />
        <stop lane="50211834#1_0" startPos="7.3" endPos="17.3" duration="46" parking="false" />
    </vehicle>
    <vehicle id="microbus_50" type="microbus" depart="54212" departLane="best" departSpeed="random">
        <route edges="28718647#1 28718647#2 28718647#3 690516091#1 10873186#9 10873186#0 28718874#0 10873193#0" />
        <stop lane="28718874#0_0" startPos="11.0" endPos="21.0" duration="12" parking="false" />
        <stop lane="10873193#0_0" startPos="5.4" endPos="15.4" duration="34" parking="false" />
    </vehicle>
    <vehicle id="microbus_51" type="microbus" depart="54217" departLane="best" departSpeed="random">
        <route edges="-711671304 28718647#3 690516091#1 10873186#9 10873186#0 28718874#0 10873193#0 305873957#0" />
        <stop lane="28718874#0_0" startPos="11.4" endPos="21.4" duration="26" parking="false" />
        <stop lane="10873193#0_0" startPos="14.3" endPos="24.3" duration="38" parking="false" />
    </vehicle>
    <vehicle id="microbus_52" type="microbus" depart="54228" departLane="best" departSpeed="random">
        <route edges="29181613#1 29181613#2 961982432#0 961982432#1" />
        <stop lane="29181613#1_0" startPos="14.4" endPos="24.4" duration="37" parking="false" />
    </vehicle>
    <vehicle id="microbus_53" type="microbus" depart="54236" departLane="best" departSpeed="random">
        <route edges="29181613#2 29181613#3 29181613#4 29181613#5 10873186#4 10873186#5 10873186#6 10873186#7 10873186#8 10873186#9 10873186#0 28718874#0 10873193#0 10873193#1 10873193#2" />
        <stop lane="28718874#0_0" startPos="13.8" endPos="23.8" duration="42" parking="false" />
        <stop lane="10873193#0_0" startPos="10.6" endPos="20.6" duration="16" parking="false" />
        <stop lane="10873193#1_0" startPos="12.8" endPos="22.8" duration="46" parking="false" />
    </vehicle>
    <vehicle id="microbus_54" type="microbus" depart="54239" departLane="best" departSpeed="random">
        <route edges="29181613#5 10873186#4 10873186#5 10873186#6 10873186#7 10873186#8 10873186#9 10873186#0 10873186#1 10873191#0" />
    </vehicle>
    <vehicle id="microbus_55" type="microbus" depart="54250" departLane="best" departSpeed="random">
        <route edges="28718647#2 28718647#3 690516091#1 10873186#9 10873186#0 28718874#0 10873193#0 10873193#1" />
        <stop lane="10873193#0_0" startPos="14.5" endPos="24.5" duration="54" parking="false" />
        <stop lane="10873193#1_0" startPos="7.9" endPos="17.9" duration="11" parking="false" />
    </vehicle>
    <vehicle id="microbus_56" type="microbus" depart="54253" departLane="best" departSpeed="random">
        <route edges="50211834#1 10873186#6 10873186#7 10873186#8 10873186#9 10873186#0 28718874#0 10873193#0 10873193#1 10873193#2" />
        <stop lane="50211834#1_0" startPos="13.0" endPos="23.0" duration="13" parking="false" />
        <stop lane="28718874#0_0" startPos="8.2" endPos="18.2" duration="29" parking="false" />
        <stop lane="10873193#0_0" startPos="10.6" endPos="20.6" duration="31" parking="false" />
        <stop lane="10873193#1_0" startPos="8.6" endPos="18.6" duration="35" parking="false" />
    </vehicle>
    <vehicle id="microbus_57" type="microbus" depart="54259" departLane="best" departSpeed="random">
        <route edges="28718647#1 28718647#2 28718647#3 690516091#1 10873186#9 10873186#0 28718874#0 28718874#1 28718874#2" />
        <stop lane="28718874#0_0" startPos="8.2" endPos="18.2" duration="46" parking="false" />
        <stop lane="28718874#1_0" startPos="11.7" endPos="21.7" duration="30" parking="false" />
    </vehicle>
    <vehicle id="microbus_58" type="microbus" depart="54270" departLane="best" departSpeed="random">
        <route edges="690516091#1 10873186#9 10873186#0 10873186#1 10873186#2 10873186#3 10873186#4 10873186#5 10873186#6 305873958#0 305873958#1 305873958#2 305873958#3-AddedOnRampEdge" />
    </vehicle>
    <vehicle id="microbus_59" type="microbus" depart="54277" departLane="best" departSpeed="random">
        <route edges="-711671304 28718647#3 138136500#0 138136500#1" />
    </vehicle>
    <vehicle id="microbus_60" type="microbus" depart="54286" departLane="best" departSpeed="random">
        <route edges="29181613#2 29181613#3 29181613#4 29181613#5" />
    </vehicle>
    <vehicle id="microbus_61" type="microbus" depart="54291" departLane="best" departSpeed="random">
        <route edges="-711671304 28718647#3 138136500#0 138136500#1" />
    </vehicle>
    <vehicle id="microbus_62" type="microbus" depart="54295" departLane="best" departSpeed="random">
        <route edges="29181613#4 29181613#5 10873186#4 192591565#0 192591565#1" />
        <stop lane="192591565#0_0" startPos="9.4" endPos="19.4" duration="31" parking="false" />
        <stop lane="192591565#1_0" startPos="8.9" endPos="18.9" duration="50" parking="false" />
    </vehicle>
    <vehicle id="microbus_63" type="microbus" depart="54307" departLane="best" departSpeed="random">
        <route edges="29181613#4 29181613#5 10873186#4 10873186#5 10873186#6 10873186#7 10873186#8 10873186#9 10873186#0 10873186#1 10873191#0 10873191#1 10873191#2 10873191#3 10873191#4 10873191#5" />
    </vehicle>
    <vehicle id="microbus_64" type="microbus" depart="54314" departLane="best" departSpeed="random">
        <route edges="10873191#2 10873191#3 10873191#4 10873191#5" />
    </vehicle>
    <vehicle id="microbus_65" type="microbus" depart="54320" departLane="best" departSpeed="random">
        <route edges="690516091#0 690516091#1 10873186#9 10873186#0 10873186#1 10873191#0 10873191#1 10873191#2" />
    </vehicle>
    <vehicle id="microbus_66" type="microbus" depart="54328" departLane="best" departSpeed="random">
        <route edges="10873191#2 10873191#3 10873191#4 10873191#5" />
    </vehicle>
    <vehicle id="microbus_67" type="microbus" depart="54334" departLane="best" departSpeed="random">
        <route edges="29181613#4 29181613#5 10873186#4 192591565#0 192591565#1" />
        <stop lane="192591565#0_0" startPos="8.6" endPos="18.6" duration="35" parking="false" />
        <stop lane="192591565#1_0" startPos="8.9" endPos="18.9" duration="20" parking="false" />
    </vehicle>
    <vehicle id="microbus_68" type="microbus" depart="54337" departLane="best" departSpeed="random">
        <route edges="28718647#1 28718647#2 28718647#3 690516091#1 10873186#9 10873186#0 28718874#0 10873193#0" />
        <stop lane="28718874#0_0" startPos="9.4" endPos="19.4" duration="41" parking="false" />
        <stop lane="10873193#0_0" startPos="12.4" endPos="22.4" duration="54" parking="false" />
    </vehicle>
    <vehicle id="microbus_69" type="microbus" depart="54346" departLane="best" departSpeed="random">
        <route edges="28718647#1 28718647#2 28718647#3 690516091#1 10873186#9 10873186#0 28718874#0 10873193#0" />
        <stop lane="28718874#0_0" startPos="13.4" endPos="23.4" duration="17" parking="false" />
        <stop lane="10873193#0_0" startPos="12.0" endPos="22.0" duration="55" parking="false" />
    </vehicle>
    <vehicle id="microbus_70" type="microbus" depart="54351" departLane="best" departSpeed="random">
        <route edges="29181613#4 29181613#5 10873186#4 10873186#5 10873186#6 10873186#7 10873186#8 10873186#9 10873186#0 10873186#1 10873191#0 10873191#1 10873191#2 10873191#3 10873191#4 10873191#5" />
    </vehicle>
    <vehicle id="microbus_71" type="microbus" depart="54357" departLane="best" departSpeed="random">
        <route edges="-711671304 28718647#3 138136500#0 138136500#1" />
    </vehicle>
    <vehicle id="microbus_72" type="microbus" depart="54367" departLane="best" departSpeed="random">
        <route edges="10873191#2 10873191#3 10873191#4 10873191#5" />
    </vehicle>
    <vehicle id="microbus_73" type="microbus" depart="54373" departLane="best" departSpeed="random">
        <route edges="29181613#4 29181613#5 10873186#4 192591565#0 192591565#1" />
        <stop lane="192591565#0_0" startPos="14.3" endPos="24.3" duration="26" parking="false" />
        <stop lane="192591565#1_0" startPos="5.4" endPos="15.4" duration="29" parking="false" />
    </vehicle>
    <vehicle id="microbus_74" type="microbus" depart="54380" departLane="best" departSpeed="random">
        <route edges="50211834#1 10873186#6 10873186#7 10873186#8 10873186#9 10873186#0 28718874#0 10873193#0 10873193#1 10873193#2" />
        <stop lane="50211834#1_0" startPos="13.7" endPos="23.7" duration="17" parking="false" />
        <stop lane="28718874#0_0" startPos="14.2" endPos="24.2" duration="37" parking="false" />
        <stop lane="10873193#0_0" startPos="11.8" endPos="21.8" duration="60" parking="false" />
        <stop lane="10873193#1_0" startPos="5.3" endPos="15.3" duration="45" parking="false" />
    </vehicle>
    <vehicle id="microbus_75" type="microbus" depart="54385" departLane="best" departSpeed="random">
        <route edges="50211834#1 10873186#6 10873186#7 10873186#8 10873186#9 10873186#0 28718874#0 10873193#0 10873193#1 10873193#2" />
        <stop lane="50211834#1_0" startPos="8.6" endPos="18.6" duration="37" parking="false" />
        <stop lane="28718874#0_0" startPos="8.0" endPos="18.0" duration="21" parking="false" />
    </vehicle>
    <vehicle id="microbus_76" type="microbus" depart="54393" departLane="best" departSpeed="random">
        <route edges="50211834#1 10873186#6 10873186#7 10873186#8 10873186#9 10873186#0 28718874#0 10873193#0 10873193#1 10873193#2" />
        <stop lane="50211834#1_0" startPos="8.0" endPos="18.0" duration="44" parking="false" />
        <stop lane="28718874#0_0" startPos="13.1" endPos="23.1" duration="23" parking="false" />
        <stop lane="10873193#0_0" startPos="6.2" endPos="16.2" duration="34" parking="false" />
        <stop lane="10873193#1_0" startPos="13.7" endPos="23.7" duration="39" parking="false" />
    </vehicle>
    <vehicle id="microbus_77" type="microbus" depart="54399" departLane="best" departSpeed="random">
        <route edges="29181613#2 29181613#3 29181613#4 29181613#5 10873186#4 10873186#5 10873186#6 10873186#7 10873186#8 10873186#9 10873186#0 28718874#0 10873193#0 10873193#1 10873193#2" />
        <stop lane="28718874#0_0" startPos="11.5" endPos="21.5" duration="44" parking="false" />
        <stop lane="10873193#0_0" startPos="7.8" endPos="17.8" duration="59" parking="false" />
        <stop lane="10873193#1_0" startPos="10.2" endPos="20.2" duration="13" parking="false" />
    </vehicle>
    <vehicle id="microbus_78" type="microbus" depart="54411" departLane="best" departSpeed="random">
        <route edges="29181613#1 29181613#2 961982432#0 961982432#1" />
        <stop lane="29181613#1_0" startPos="12.2" endPos="22.2" duration="27" parking="false" />
    </vehicle>
    <vehicle id="microbus_79" type="microbus" depart="54413" departLane="best" departSpeed="random">
        <route edges="29181613#4 29181613#5 10873186#4 10873186#5 10873186#6 10873186#7 10873186#8 10873186#9 10873186#0 10873186#1 10873191#0 10873191#1 10873191#2 10873191#3 10873191#4 10873191#5" />
    </vehicle>
    <vehicle id="microbus_80" type="microbus" depart="54426" departLane="best" departSpeed="random">
        <route edges="29181613#2 29181613#3 29181613#4 29181613#5 10873186#4 10873186#5 10873186#6 10873186#7 10873186#8 10873186#9 10873186#0 28718874#0 10873193#0 10873193#1 10873193#2" />
        <stop lane="28718874#0_0" startPos="7.8" endPos="17.8" duration="60" parking="false" />
        <stop lane="10873193#0_0" startPos="7.1" endPos="17.1" duration="54" parking="false" />
    </vehicle>
    <vehicle id="microbus_81" type="microbus" depart="54430" departLane="best" departSpeed="random">
        <route edges="50211834#1 10873186#6 10873186#7 10873186#8 10873186#9 10873186#0 28718874#0 10873193#0 10873193#1 10873193#2" />
        <stop lane="28718874#0_0" startPos="6.6" endPos="16.6" duration="38" parking="false" />
        <stop lane="10873193#1_0" startPos="8.4" endPos="18.4" duration="16" parking="false" />
    </vehicle>
    <vehicle id="microbus_82" type="microbus" depart="54436" departLane="best" departSpeed="random">
        <route edges="29181613#4 29181613#5 10873186#4 10873186#5 10873186#6 10873186#7 10873186#8 10873186#9 10873186#0 10873186#1 10873191#0 10873191#1 10873191#2 10873191#3 10873191#4 10873191#5" />
    </vehicle>
    <vehicle id="microbus_83" type="microbus" depart="54441" departLane="best" departSpeed="random">
        <route edges="-711671304 28718647#3 138136500#0 138136500#1" />
    </vehicle>
    <vehicle id="microbus_84" type="microbus" depart="54452" departLane="best" departSpeed="random">
        <route edges="28718647#1 28718647#2 28718647#3 690516091#1 10873186#9 10873186#0 28718874#0 28718874#1 28718874#2" />
        <stop lane="28718874#0_0" startPos="7.7" endPos="17.7" duration="38" parking="false" />
        <stop lane="28718874#1_0" startPos="7.6" endPos="17.6" duration="23" parking="false" />
    </vehicle>
    <vehicle id="microbus_85" type="microbus" depart="54461" departLane="best" departSpeed="random">
        <route edges="29181613#1 29181613#2 961982432#0 961982432#1" />
        <stop lane="29181613#1_0" startPos="9.1" endPos="19.1" duration="17" parking="false" />
    </vehicle>
    <vehicle id="microbus_86" type="microbus" depart="54467" departLane="best" departSpeed="random">