<?xml version='1.0' encoding='utf-8'?>
<routes xmlns:xsi="http://www.w3.org/2001/XMLSchema-instance" xsi:noNamespaceSchemaLocation="http://sumo.dlr.de/xsd/routes_file.xsd">
    <vType id="passenger" vClass="passenger" />
    <vehicle id="0" type="type_car" depart="27000.00">
        <route edges="29181613#5 10873186#4 10873186#5 10873186#6 10873186#7 10873186#8 10873186#9 10873186#0 10873186#1 10873191#0" />
    </vehicle>
    <vehicle id="1" type="type_car" depart="27001.80">
        <route edges="690516091#0 690516091#1 10873186#9 10873186#0 10873186#1 10873191#0 10873191#1 10873191#2" />
    </vehicle>
    <vehicle id="2" type="type_microbus" depart="27003.60">
        <route edges="28718647#2 28718647#3 690516091#1 10873186#9 10873186#0 10873186#1 10873191#0" />
    </vehicle>
    <vehicle id="3" type="type_car" depart="27005.40">
        <route edges="-711671304 28718647#3 690516091#1 10873186#9 10873186#0 28718874#0 10873193#0" />
    </vehicle>
    <vehicle id="4" type="type_car" depart="27007.20">
        <route edges="29181613#5 10873186#4 10873186#5 10873186#6 10873186#7 10873186#8 10873186#9 10873186#0 28718874#0 28718874#1" />
    </vehicle>
    <vehicle id="5" type="type_truck" depart="27009.00">
        <route edges="10873191#2 10873191#3" />
    </vehicle>
    <vehicle id="6" type="type_bus" depart="27010.80">
        <route edges="29181613#1 29181613#2 961982432#0 961982432#1" />
    </vehicle>
    <vehicle id="7" type="type_taxi" depart="27012.60">
        <route edges="28718647#1 28718647#2 28718647#3 690516091#1 10873186#9 10873186#0 28718874#0 28718874#1 28718874#2" />
    </vehicle>
    <vehicle id="8" type="type_car" depart="27014.40">
        <route edges="29181613#4 29181613#5 10873186#4 192591565#0 192591565#1" />
    </vehicle>
    <vehicle id="9" type="type_microbus" depart="27016.20">
        <route edges="28718647#1 28718647#2 28718647#3 690516091#1 10873186#9 10873186#0 28718874#0 10873193#0" />
    </vehicle>
    <vehicle id="10" type="type_car" depart="27018.00">
        <route edges="29181613#2 29181613#3 29181613#4 29181613#5" />
    </vehicle>
    <vehicle id="11" type="type_microbus" depart="27019.80">
        <route edges="50211834#0 50211834#1 10873186#6 305873958#0" />
    </vehicle>
    <vehicle id="12" type="type_microbus" depart="27021.60">
        <route edges="29181613#5 10873186#4 192591565#0 192591565#1 192591565#2" />
    </vehicle>
    <vehicle id="13" type="type_car" depart="27023.40">
        <route edges="29181613#2 29181613#3 29181613#4 29181613#5 10873186#4 10873186#5 10873186#6 10873186#7 10873186#8 10873186#9 10873186#0 28718874#0 10873193#0 10873193#1 10873193#2" />
    </vehicle>
    <vehicle id="14" type="type_car" depart="27025.20">
        <route edges="28718647#2 28718647#3 690516091#1 10873186#9 10873186#0 28718874#0 10873193#0 10873193#1" />
    </vehicle>
    <vehicle id="15" type="type_taxi" depart="27027.00">
        <route edges="-711671304 28718647#3 690516091#1 10873186#9 10873186#0 28718874#0 10873193#0 305873957#0" />
    </vehicle>
    <vehicle id="16" type="type_microbus" depart="27028.80">
        <route edges="50211834#1 10873186#6 10873186#7 10873186#8 10873186#9 10873186#0 28718874#0 10873193#0 10873193#1 10873193#2" />
    </vehicle>
    <vehicle id="17" type="type_car" depart="27030.60">
        <route edges="690516091#1 10873186#9 10873186#0 10873186#1 10873186#2 10873186#3 10873186#4 10873186#5 10873186#6 305873958#0 305873958#1 305873958#2 305873958#3-AddedOnRampEdge" />
    </vehicle>
    <vehicle id="18" type="type_car" depart="27032.40">
        <route edges="29181613#4 29181613#5 10873186#4 10873186#5 10873186#6 10873186#7 10873186#8 10873186#9 10873186#0 10873186#1 10873191#0 10873191#1 10873191#2 10873191#3 10873191#4 10873191#5" />
    </vehicle>
    <vehicle id="19" type="type_bus" depart="27034.20">
        <route edges="-711671304 28718647#3 138136500#0 138136500#1" />
    </vehicle>
    <vehicle id="20" type="type_car" depart="27036.00">
        <route edges="-711671304 28718647#3 690516091#1" />
    </vehicle>
    <vehicle id="21" type="type_bus" depart="27037.80">
        <route edges="50211834#1 10873186#6 305873958#0 305873958#1 305873958#2" />
    </vehicle>
    <vehicle id="22" type="type_car" depart="27039.60">
        <route edges="28718874#0 28718874#1 28718874#2" />
    </vehicle>
    <vehicle id="23" type="type_car" depart="27041.40">
        <route edges="138136500#0 138136500#1 305873958#3-AddedOnRampEdge" />
    </vehicle>
    <vehicle id="24" type="type_motorcycle" depart="27043.20">
        <route edges="28718647#2 28718647#3 690516091#1 10873186#9 10873186#0 28718874#0 10873193#0" />
    </vehicle>
    <vehicle id="25" type="type_car" depart="27045.00">
        <route edges="29181613#1 29181613#2 29181613#3 29181613#4 29181613#5 10873186#4 10873186#5 10873186#6 10873186#7 10873186#8 10873186#9 10873186#0 28718874#0 10873193#0 305873957#0 305873957#1" />
    </vehicle>
    <vehicle id="26" type="type_car" depart="27046.80">
        <route edges="28718647#3 690516091#1 10873186#9 10873186#0 28718874#0 28718874#1" />
    </vehicle>
    <vehicle id="27" type="type_car" depart="27048.60">
        <route edges="10873193#1" />
    </vehicle>
    <vehicle id="28" type="type_motorcycle" depart="27050.40">
        <route edges="50211834#1 10873186#6 10873186#7 10873186#8 10873186#9 10873186#0 10873186#1 10873191#0 10873191#1 10873191#2" />
    </vehicle>
    <vehicle id="29" type="type_car" depart="27052.20">
        <route edges="690516091#1 10873186#9 10873186#0 28718874#0 28718874#1 28718874#2" />
    </vehicle>
    <vehicle id="30" type="type_taxi" depart="27054.00">
        <route edges="28718647#2 28718647#3" />
    </vehicle>
    <vehicle id="31" type="type_microbus" depart="27055.80">
        <route edges="961982432#1 10873191#3" />
    </vehicle>
    <vehicle id="32" type="type_taxi" depart="27057.60">
        <route edges="28718647#2 28718647#3 690516091#1 10873186#9 10873186#0 10873186#1 10873186#2 10873186#3 10873186#4 192591565#0" />
    </vehicle>
    <vehicle id="33" type="type_taxi" depart="27059.40">
        <route edges="50211834#1 10873186#6 10873186#7 10873186#8 10873186#9 10873186#0 28718874#0 10873193#0 10873193#1 10873193#2" />
    </vehicle>
    <vehicle id="34" type="type_car" depart="27061.20">
        <route edges="28718647#2 28718647#3 138136500#0" />
    </vehicle>
    <vehicle id="35" type="type_car" depart="27063.00">
        <route edges="28718647#3 138136500#0 138136500#1 305873958#3-AddedOnRampEdge" />
    </vehicle>
    <vehicle id="36" type="type_bus" depart="27064.80">
        <route edges="29181613#2 29181613#3 29181613#4 29181613#5 10873186#4 10873186#5 10873186#6 10873186#7 10873186#8 10873186#9 10873186#0 10873186#1 10873191#0 10873191#1" />
    </vehicle>
    <vehicle id="37" type="type_microbus" depart="27066.60">
        <route edges="50211834#1 10873186#6 10873186#7 10873186#8 10873186#9 10873186#0 10873186#1 10873191#0 10873191#1 10873191#2 10873191#3 10873191#4 10873191#5" />
    </vehicle>
    <vehicle id="38" type="type_car" depart="27068.40">
        <route edges="28718647#2 28718647#3 690516091#1 10873186#9 10873186#0 10873186#1 10873191#0 10873191#1" />
    </vehicle>
    <vehicle id="39" type="type_car" depart="27070.20">
        <route edges="961982432#0 961982432#1" />
    </vehicle>
    <vehicle id="40" type="type_microbus" depart="27072.00">
        <route edges="29181613#2 29181613#3 29181613#4 29181613#5 10873186#4 10873186#5 10873186#6 10873186#7 10873186#8 10873186#9 10873186#0 28718874#0 10873193#0 305873957#0" />
    </vehicle>
    <vehicle id="41" type="type_truck" depart="27073.80">
        <route edges="29181613#1 29181613#2 29181613#3 29181613#4 29181613#5 10873186#4 10873186#5 10873186#6 10873186#7 10873186#8 10873186#9 10873186#0 28718874#0 10873193#0 305873957#0 305873957#1" />
    </vehicle>
    <vehicle id="42" type="type_car" depart="27075.60">
        <route edges="29181613#3 29181613#4 29181613#5" />
    </vehicle>
    <vehicle id="43" type="type_microbus" depart="27077.40">
        <route edges="690516091#0 690516091#1 10873186#9 10873186#0 28718874#0 10873193#0 10873193#1 10873193#2" />
    </vehicle>
    <vehicle id="44" type="type_car" depart="27079.20">
        <route edges="29181613#3" />
    </vehicle>
    <vehicle id="45" type="type_motorcycle" depart="27081.00">
        <route edges="10873193#0 305873957#0" />
    </vehicle>
    <vehicle id="46" type="type_car" depart="27082.80">
        <route edges="961982432#1" />
    </vehicle>
    <vehicle id="47" type="type_car" depart="27084.60">
        <route edges="28718647#1 28718647#2 28718647#3 690516091#1 10873186#9 10873186#0 10873186#1 10873191#0 10873191#1 10873191#2 10873191#3 10873191#4 10873191#5" />
    </vehicle>
    <vehicle id="48" type="type_bus" depart="27086.40">
        <route edges="50211834#0 50211834#1 10873186#6 10873186#7 10873186#8 10873186#9 10873186#0 28718874#0 10873193#0 305873957#0" />
    </vehicle>
    <vehicle id="49" type="type_car" depart="27088.20">
        <route edges="29181613#5 10873186#4 10873186#5 10873186#6 10873186#7 10873186#8 10873186#9 10873186#0 10873186#1 10873191#0" />
    </vehicle>
    <vehicle id="50" type="type_car" depart="27090.00">
        <route edges="10873191#3" />
    </vehicle>
    <vehicle id="51" type="type_car" depart="27091.80">
        <route edges="29181613#4 29181613#5 10873186#4 10873186#5 10873186#6 10873186#7 10873186#8 10873186#9 10873186#0 28718874#0 10873193#0 10873193#1 10873193#2" />
    </vehicle>
    <vehicle id="52" type="type_car" depart="27093.60">
        <route edges="50211834#0 50211834#1 10873186#6 10873186#7 10873186#8 10873186#9 10873186#0 10873186#1 10873191#0 10873191#1 10873191#2 10873191#3" />
    </vehicle>
    <vehicle id="53" type="type_car" depart="27095.40">
        <route edges="28718647#2 28718647#3 138136500#0" />
    </vehicle>
    <vehicle id="54" type="type_car" depart="27097.20">
        <route edges="-711671304 28718647#3 690516091#1 10873186#9 10873186#0 10873186#1 10873186#2 10873186#3 10873186#4 10873186#5 10873186#6 305873958#0" />
    </vehicle>
    <vehicle id="55" type="type_bus" depart="27099.00">
        <route edges="29181613#5 10873186#4 10873186#5 10873186#6 10873186#7 10873186#8 10873186#9 10873186#0 28718874#0 10873193#0 10873193#1 10873193#2" />
    </vehicle>
    <vehicle id="56" type="type_microbus" depart="27100.80">
        <route edges="28718647#3 690516091#1 10873186#9 10873186#0 10873186#1 10873191#0" />
    </vehicle>
    <vehicle id="57" type="type_truck" depart="27102.60">
        <route edges="690516091#0 690516091#1 10873186#9 10873186#0 28718874#0 28718874#1 28718874#2" />
    </vehicle>
    <vehicle id="58" type="type_taxi" depart="27104.40">
        <route edges="10873191#3 10873191#4" />
    </vehicle>
    <vehicle id="59" type="type_taxi" depart="27106.20">
        <route edges="305873958#2 305873958#3-AddedOnRampEdge" />
    </vehicle>
    <vehicle id="60" type="type_car" depart="27108.00">
        <route edges="690516091#0 690516091#1 10873186#9 10873186#0 28718874#0 10873193#0" />
    </vehicle>
    <vehicle id="61" type="type_bus" depart="27109.80">
        <route edges="-711671304 28718647#3 690516091#1 10873186#9 10873186#0 28718874#0 10873193#0 305873957#0 305873957#1" />
    </vehicle>
    <vehicle id="62" type="type_car" depart="27111.60">
        <route edges="305873958#2 305873958#3-AddedOnRampEdge" />
    </vehicle>
    <vehicle id="63" type="type_taxi" depart="27113.40">
        <route edges="50211834#1 10873186#6 305873958#0 305873958#1 305873958#2 305873958#3-AddedOnRampEdge" />
    </vehicle>
    <vehicle id="64" type="type_microbus" depart="27115.20">
        <route edges="-711671304 28718647#3 690516091#1 10873186#9 10873186#0 28718874#0 10873193#0" />
    </vehicle>
    <vehicle id="65" type="type_car" depart="27117.00">
        <route edges="29181613#5 10873186#4 192591565#0 192591565#1 192591565#2" />
    </vehicle>
    <vehicle id="66" type="type_car" depart="27118.80">
        <route edges="690516091#1 10873186#9 10873186#0 10873186#1 10873191#0 10873191#1 10873191#2 10873191#3" />
    </vehicle>
    <vehicle id="67" type="type_car" depart="27120.60">
        <route edges="961982432#1 10873191#3 10873191#4 10873191#5" />
    </vehicle>
    <vehicle id="68" type="type_car" depart="27122.40">
        <route edges="29181613#4 29181613#5 10873186#4 10873186#5 10873186#6 10873186#7 10873186#8 10873186#9 10873186#0 28718874#0" />
    </vehicle>
    <vehicle id="69" type="type_car" depart="27124.20">
        <route edges="-711671304 28718647#3 690516091#1" />
    </vehicle>
    <vehicle id="70" type="type_taxi" depart="27126.00">
        <route edges="29181613#1 29181613#2 29181613#3 29181613#4 29181613#5 10873186#4 10873186#5 10873186#6 10873186#7 10873186#8 10873186#9 10873186#0 28718874#0 10873193#0 305873957#0" />
    </vehicle>
    <vehicle id="71" type="type_motorcycle" depart="27127.80">
        <route edges="28718647#1 28718647#2 28718647#3 690516091#1 10873186#9 10873186#0 10873186#1 10873191#0 10873191#1 10873191#2" />
    </vehicle>
    <vehicle id="72" type="type_microbus" depart="27129.60">
        <route edges="192591565#0 192591565#1 192591565#2" />
    </vehicle>
    <vehicle id="73" type="type_car" depart="27131.40">
        <route edges="28718647#2 28718647#3 138136500#0" />
    </vehicle>
    <vehicle id="74" type="type_car" depart="27133.20">
        <route edges="-711671304 28718647#3 138136500#0" />
    </vehicle>
    <vehicle id="75" type="type_motorcycle" depart="27135.00">
        <route edges="28718647#3 690516091#1 10873186#9 10873186#0 28718874#0 10873193#0 10873193#1" />
    </vehicle>
    <vehicle id="76" type="type_car" depart="27136.80">
        <route edges="29181613#4 29181613#5 10873186#4 192591565#0" />
    </vehicle>
    <vehicle id="77" type="type_car" depart="27138.60">
        <route edges="50211834#0 50211834#1 10873186#6 10873186#7 10873186#8 10873186#9 10873186#0 28718874#0 10873193#0 305873957#0 305873957#1" />
    </vehicle>
    <vehicle id="78" type="type_car" depart="27140.40">
        <route edges="50211834#1 10873186#6 10873186#7 10873186#8 10873186#9 10873186#0 10873186#1 10873191#0 10873191#1 10873191#2" />
    </vehicle>
    <vehicle id="79" type="type_bus" depart="27142.20">
        <route edges="29181613#5 10873186#4 10873186#5 10873186#6 10873186#7 10873186#8 10873186#9 10873186#0 10873186#1 10873191#0" />
    </vehicle>
    <vehicle id="80" type="type_microbus" depart="27144.00">
        <route edges="305873958#0" />
    </vehicle>
    <vehicle id="81" type="type_taxi" depart="27145.80">
        <route edges="29181613#1 29181613#2 29181613#3 29181613#4 29181613#5 10873186#4 10873186#5 10873186#6 10873186#7 10873186#8 10873186#9 10873186#0 10873186#1 10873191#0 10873191#1" />
    </vehicle>
    <vehicle id="82" type="type_taxi" depart="27147.60">
        <route edges="50211834#0 50211834#1 10873186#6 10873186#7 10873186#8 10873186#9 10873186#0 28718874#0 28718874#1 28718874#2" />
    </vehicle>
    <vehicle id="83" type="type_car" depart="27149.40">
        <route edges="690516091#0 690516091#1 10873186#9 10873186#0 28718874#0 10873193#0 305873957#0 305873957#1" />
    </vehicle>
    <vehicle id="84" type="type_car" depart="27151.20">
        <route edges="28718874#0 10873193#0 10873193#1 10873193#2" />
    </vehicle>
    <vehicle id="85" type="type_car" depart="27153.00">
        <route edges="138136500#0 138136500#1" />
    </vehicle>
    <vehicle id="86" type="type_motorcycle" depart="27154.80">
        <route edges="29181613#1 29181613#2 961982432#0 961982432#1 10873191#3 10873191#4" />
    </vehicle>
    <vehicle id="87" type="type_car" depart="27156.60">
        <route edges="305873957#1 10873191#2" />
    </vehicle>
    <vehicle id="88" type="type_car" depart="27158.40">
        <route edges="28718647#2 28718647#3 690516091#1 10873186#9 10873186#0 28718874#0 28718874#1" />
    </vehicle>
    <vehicle id="89" type="type_car" depart="27160.20">
        <route edges="28718647#2 28718647#3 690516091#1 10873186#9 10873186#0 28718874#0 10873193#0" />
    </vehicle>
    <vehicle id="90" type="type_motorcycle" depart="27162.00">
        <route edges="29181613#3 29181613#4 29181613#5" />
    </vehicle>
    <vehicle id="91" type="type_taxi" depart="27163.80">
        <route edges="50211834#1 10873186#6 305873958#0" />
    </vehicle>
    <vehicle id="92" type="type_taxi" depart="27165.60">
        <route edges="28718647#1 28718647#2 28718647#3 690516091#1 10873186#9 10873186#0 10873186#1 10873191#0" />
    </vehicle>
    <vehicle id="93" type="type_taxi" depart="27167.40">
        <route edges="28718647#2 28718647#3 690516091#1 10873186#9 10873186#0 28718874#0 10873193#0 305873957#0 305873957#1" />
    </vehicle>
    <vehicle id="94" type="type_taxi" depart="27169.20">
        <route edges="29181613#2" />
    </vehicle>
    <vehicle id="95" type="type_microbus" depart="27171.00">
        <route edges="10873193#1" />
    </vehicle>
    <vehicle id="96" type="type_car" depart="27172.80">
        <route edges="28718647#3 690516091#1 10873186#9 10873186#0 10873186#1 10873191#0" />
    </vehicle>
    <vehicle id="97" type="type_car" depart="27174.60">
        <route edges="28718647#2 28718647#3 690516091#1 10873186#9 10873186#0 10873186#1 10873191#0 10873191#1 10873191#2 10873191#3 10873191#4 10873191#5" />
    </vehicle>
    <vehicle id="98" type="type_microbus" depart="27176.40">
        <route edges="28718874#0 10873193#0 305873957#0 305873957#1 10873191#2 10873191#3 10873191#4" />
    </vehicle>
    <vehicle id="99" type="type_car" depart="27178.20">
        <route edges="29181613#4 29181613#5 10873186#4 10873186#5 10873186#6 10873186#7 10873186#8 10873186#9 10873186#0 10873186#1 10873191#0" />
    </vehicle>
    <vehicle id="100" type="type_car" depart="27180.00">
        <route edges="28718647#2 28718647#3 690516091#1 10873186#9 10873186#0 28718874#0 28718874#1 28718874#2" />
    </vehicle>
    <vehicle id="101" type="type_microbus" depart="27181.80">
        <route edges="305873958#0 305873958#1 305873958#2" />
    </vehicle>
    <vehicle id="102" type="type_car" depart="27183.60">
        <route edges="-711671304 28718647#3 690516091#1 10873186#9 10873186#0 28718874#0 28718874#1" />
    </vehicle>
    <vehicle id="103" type="type_car" depart="27185.40">
        <route edges="29181613#5 10873186#4 10873186#5 10873186#6 305873958#0" />
    </vehicle>
    <vehicle id="104" type="type_taxi" depart="27187.20">
        <route edges="29181613#5 10873186#4 10873186#5 10873186#6 10873186#7 10873186#8 10873186#9 10873186#0 28718874#0 10873193#0 305873957#0 305873957#1" />
    </vehicle>
    <vehicle id="105" type="type_taxi" depart="27189.00">
        <route edges="-711671304 28718647#3 690516091#1 10873186#9 10873186#0 10873186#1 10873191#0 10873191#1 10873191#2 10873191#3 10873191#4 10873191#5" />
    </vehicle>
    <vehicle id="106" type="type_car" depart="27190.80">
        <route edges="29181613#2 29181613#3 29181613#4 29181613#5 10873186#4 10873186#5 10873186#6 10873186#7 10873186#8 10873186#9 10873186#0 28718874#0 10873193#0 10873193#1" />
    </vehicle>
    <vehicle id="107" type="type_bus" depart="27192.60">
        <route edges="305873957#1 10873191#2" />
    </vehicle>
    <vehicle id="108" type="type_car" depart="27194.40">
        <route edges="28718647#3 690516091#1 10873186#9 10873186#0 10873186#1 10873186#2 10873186#3 10873186#4 192591565#0 192591565#1" />
    </vehicle>
    <vehicle id="109" type="type_car" depart="27196.20">
        <route edges="50211834#1 10873186#6 305873958#0 305873958#1 305873958#2" />
    </vehicle>
    <vehicle id="110" type="type_taxi" depart="27198.00">
        <route edges="29181613#4 29181613#5 10873186#4 10873186#5 10873186#6 305873958#0 305873958#1 305873958#2" />
    </vehicle>
    <vehicle id="111" type="type_car" depart="27199.80">
        <route edges="28718647#3 690516091#1 10873186#9 10873186#0 28718874#0 10873193#0 305873957#0 305873957#1" />
    </vehicle>
    <vehicle id="112" type="type_car" depart="27201.60">
        <route edges="138136500#0 138136500#1 305873958#3-AddedOnRampEdge" />
    </vehicle>
    <vehicle id="113" type="type_bus" depart="27203.40">
        <route edges="50211834#0 50211834#1 10873186#6 10873186#7 10873186#8 10873186#9 10873186#0 10873186#1 10873191#0 10873191#1 10873191#2" />
    </vehicle>
    <vehicle id="114" type="type_car" depart="27205.20">
        <route edges="690516091#0 690516091#1 10873186#9 10873186#0 28718874#0 10873193#0 10873193#1 10873193#2" />
    </vehicle>
    <vehicle id="115" type="type_car" depart="27207.00">
        <route edges="28718647#1 28718647#2 28718647#3 690516091#1 10873186#9 10873186#0 10873186#1 10873191#0" />
    </vehicle>
    <vehicle id="116" type="type_car" depart="27208.80">
        <route edges="50211834#1 10873186#6 10873186#7 10873186#8 10873186#9 10873186#0 28718874#0 10873193#0" />
    </vehicle>
    <vehicle id="117" type="type_car" depart="27210.60">
        <route edges="10873193#0 305873957#0 305873957#1 10873191#2 10873191#3" />
    </vehicle>
    <vehicle id="118" type="type_microbus" depart="27212.40">
        <route edges="29181613#1 29181613#2 29181613#3 29181613#4 29181613#5 10873186#4 10873186#5 10873186#6 305873958#0" />
    </vehicle>
    <vehicle id="119" type="type_car" depart="27214.20">
        <route edges="10873193#0 10873193#1" />
    </vehicle>
    <vehicle id="120" type="type_car" depart="27216.00">
        <route edges="28718874#0 10873193#0 305873957#0" />
    </vehicle>
    <vehicle id="121" type="type_taxi" depart="27217.80">
        <route edges="10873193#0 10873193#1" />
    </vehicle>
    <vehicle id="122" type="type_car" depart="27219.60">
        <route edges="305873957#1 10873191#2 10873191#3 10873191#4" />
    </vehicle>
    <vehicle id="123" type="type_car" depart="27221.40">
        <route edges="50211834#1 10873186#6 10873186#7 10873186#8 10873186#9 10873186#0 28718874#0" />
    </vehicle>
    <vehicle id="124" type="type_car" depart="27223.20">
        <route edges="50211834#1 10873186#6 10873186#7 10873186#8 10873186#9 10873186#0 28718874#0 28718874#1 28718874#2" />
    </vehicle>
    <vehicle id="125" type="type_microbus" depart="27225.00">
        <route edges="50211834#0 50211834#1 10873186#6 10873186#7 10873186#8 10873186#9 10873186#0 10873186#1 10873186#2 10873186#3 10873186#4 192591565#0 192591565#1 192591565#2" />
    </vehicle>
    <vehicle id="126" type="type_car" depart="27226.80">
        <route edges="10873191#0 10873191#1 10873191#2 10873191#3 10873191#4" />
    </vehicle>
    <vehicle id="127" type="type_bus" depart="27228.60">
        <route edges="961982432#1 10873191#3" />
    </vehicle>
    <vehicle id="128" type="type_car" depart="27230.40">
        <route edges="28718647#3 138136500#0 138136500#1 305873958#3-AddedOnRampEdge" />
    </vehicle>
    <vehicle id="129" type="type_microbus" depart="27232.20">
        <route edges="10873193#0" />
    </vehicle>
    <vehicle id="130" type="type_car" depart="27234.00">
        <route edges="29181613#5 10873186#4 10873186#5 10873186#6 10873186#7 10873186#8 10873186#9 10873186#0 10873186#1 10873191#0 10873191#1 10873191#2 10873191#3 10873191#4 10873191#5" />
    </vehicle>
    <vehicle id="131" type="type_microbus" depart="27235.80">
        <route edges="28718647#3 690516091#1 10873186#9 10873186#0 28718874#0 28718874#1" />
    </vehicle>
    <vehicle id="132" type="type_car" depart="27237.60">
        <route edges="50211834#0 50211834#1 10873186#6 10873186#7 10873186#8 10873186#9 10873186#0 10873186#1 10873191#0 10873191#1 10873191#2" />
    </vehicle>
    <vehicle id="133" type="type_car" depart="27239.40">
        <route edges="305873957#0" />
    </vehicle>
    <vehicle id="134" type="type_car" depart="27241.20">
        <route edges="50211834#0 50211834#1 10873186#6 10873186#7 10873186#8 10873186#9 10873186#0 28718874#0 28718874#1 28718874#2" />
    </vehicle>
    <vehicle id="135" type="type_car" depart="27243.00">
        <route edges="961982432#0 961982432#1" />
    </vehicle>
    <vehicle id="136" type="type_car" depart="27244.80">
        <route edges="690516091#1 10873186#9 10873186#0 10873186#1 10873191#0 10873191#1 10873191#2 10873191#3 10873191#4 10873191#5" />
    </vehicle>
    <vehicle id="137" type="type_taxi" depart="27246.60">
        <route edges="29181613#3" />
    </vehicle>
    <vehicle id="138" type="type_microbus" depart="27248.40">
        <route edges="28718647#2 28718647#3 690516091#1 10873186#9 10873186#0 28718874#0" />
    </vehicle>
    <vehicle id="139" type="type_taxi" depart="27250.20">
        <route edges="29181613#1 29181613#2 29181613#3 29181613#4 29181613#5 10873186#4 192591565#0 192591565#1 192591565#2" />
    </vehicle>
    <vehicle id="140" type="type_car" depart="27252.00">
        <route edges="28718647#3 690516091#1 10873186#9 10873186#0 28718874#0 10873193#0 305873957#0" />
    </vehicle>
    <vehicle id="141" type="type_car" depart="27253.80">
        <route edges="29181613#4 29181613#5 10873186#4 10873186#5 10873186#6 10873186#7 10873186#8 10873186#9 10873186#0 28718874#0 10873193#0 10873193#1" />
    </vehicle>
    <vehicle id="142" type="type_microbus" depart="27255.60">
        <route edges="29181613#2 961982432#0 961982432#1 10873191#3" />
    </vehicle>
    <vehicle id="143" type="type_car" depart="27257.40">
        <route edges="28718874#0 10873193#0 305873957#0 305873957#1 10873191#2 10873191#3" />
    </vehicle>
    <vehicle id="144" type="type_taxi" depart="27259.20">
        <route edges="50211834#0 50211834#1 10873186#6 10873186#7 10873186#8 10873186#9 10873186#0 28718874#0" />
    </vehicle>
    <vehicle id="145" type="type_car" depart="27261.00">
        <route edges="29181613#2 29181613#3 29181613#4 29181613#5 10873186#4 192591565#0 192591565#1" />
    </vehicle>
    <vehicle id="146" type="type_car" depart="27262.80">
        <route edges="690516091#1 10873186#9 10873186#0 28718874#0" />
    </vehicle>
    <vehicle id="147" type="type_taxi" depart="27264.60">
        <route edges="690516091#0 138136500#0 138136500#1 305873958#3-AddedOnRampEdge" />
    </vehicle>
    <vehicle id="148" type="type_bus" depart="27266.40">
        <route edges="28718647#2 28718647#3 690516091#1" />
    </vehicle>
    <vehicle id="149" type="type_microbus" depart="27268.20">
        <route edges="29181613#1 29181613#2 29181613#3 29181613#4 29181613#5 10873186#4 192591565#0" />
    </vehicle>
    <vehicle id="150" type="type_car" depart="27270.00">
        <route edges="29181613#2 29181613#3 29181613#4 29181613#5 10873186#4 10873186#5 10873186#6 10873186#7 10873186#8 10873186#9 10873186#0 28718874#0 28718874#1" />
    </vehicle>
    <vehicle id="151" type="type_car" depart="27271.80">
        <route edges="10873193#0 305873957#0" />
    </vehicle>
    <vehicle id="152" type="type_taxi" depart="27273.60">
        <route edges="29181613#2 29181613#3 29181613#4 29181613#5 10873186#4 10873186#5 10873186#6 10873186#7 10873186#8 10873186#9 10873186#0 28718874#0 10873193#0 10873193#1" />
    </vehicle>
    <vehicle id="153" type="type_microbus" depart="27275.40">
        <route edges="29181613#5 10873186#4 10873186#5 10873186#6 305873958#0 305873958#1 305873958#2" />
    </vehicle>
    <vehicle id="154" type="type_car" depart="27277.20">
        <route edges="29181613#3 29181613#4 29181613#5 10873186#4 10873186#5 10873186#6 305873958#0 305873958#1 305873958#2 305873958#3-AddedOnRampEdge" />
    </vehicle>
    <vehicle id="155" type="type_car" depart="27279.00">
        <route edges="29181613#5 10873186#4 10873186#5 10873186#6 10873186#7 10873186#8 10873186#9 10873186#0 10873186#1 10873191#0 10873191#1 10873191#2 10873191#3 10873191#4 10873191#5" />
    </vehicle>
    <vehicle id="156" type="type_car" depart="27280.80">
        <route edges="29181613#5 10873186#4 10873186#5 10873186#6 305873958#0 305873958#1 305873958#2 305873958#3-AddedOnRampEdge" />
    </vehicle>
    <vehicle id="157" type="type_car" depart="27282.60">
        <route edges="50211834#1 10873186#6 305873958#0 305873958#1 305873958#2 305873958#3-AddedOnRampEdge" />
    </vehicle>
    <vehicle id="158" type="type_car" depart="27284.40">
        <route edges="28718647#1 28718647#2 28718647#3 138136500#0 138136500#1" />
    </vehicle>
    <vehicle id="159" type="type_microbus" depart="27286.20">
        <route edges="50211834#1 10873186#6 10873186#7 10873186#8 10873186#9 10873186#0 10873186#1 10873191#0 10873191#1" />
    </vehicle>
    <vehicle id="160" type="type_bus" depart="27288.00">
        <route edges="29181613#2 29181613#3 29181613#4 29181613#5 10873186#4 10873186#5 10873186#6 305873958#0 305873958#1" />
    </vehicle>
    <vehicle id="161" type="type_truck" depart="27289.80">
        <route edges="-711671304 28718647#3 690516091#1 10873186#9 10873186#0 10873186#1 10873186#2 10873186#3 10873186#4 10873186#5 10873186#6 305873958#0 305873958#1" />
    </vehicle>
    <vehicle id="162" type="type_car" depart="27291.60">
        <route edges="28718874#0 10873193#0 10873193#1" />
    </vehicle>
    <vehicle id="163" type="type_car" depart="27293.40">
        <route edges="29181613#2 29181613#3 29181613#4 29181613#5 10873186#4 10873186#5 10873186#6 10873186#7 10873186#8 10873186#9 10873186#0 28718874#0 28718874#1 28718874#2" />
    </vehicle>
    <vehicle id="164" type="type_taxi" depart="27295.20">
        <route edges="305873957#0 305873957#1" />
    </vehicle>
    <vehicle id="165" type="type_taxi" depart="27297.00">
        <route edges="29181613#4 29181613#5 10873186#4 192591565#0" />
    </vehicle>
    <vehicle id="166" type="type_microbus" depart="27298.80">
        <route edges="305873957#0" />
    </vehicle>
    <vehicle id="167" type="type_car" depart="27300.60">
        <route edges="29181613#5 10873186#4 10873186#5 10873186#6 305873958#0 305873958#1 305873958#2" />