<?xml version='1.0' encoding='utf-8'?>
<routes>
    <vType id="passenger" maxSpeed="13.89" length="4.5" accel="2.6" decel="4.5" sigma="0.5" minGap="2.5" color="255,255,255" />
    <vType id="taxi" maxSpeed="13.89" length="4.5" accel="2.6" decel="4.5" sigma="0.5" minGap="2.5" color="255,200,0" />
    <vType id="microbus" maxSpeed="11.11" length="6.0" accel="2.6" decel="4.5" sigma="0.5" minGap="2.5" color="0,100,255" />
    <vType id="bus" maxSpeed="11.11" length="12.0" accel="2.6" decel="4.5" sigma="0.5" minGap="2.5" color="255,0,0" />
    <vType id="truck" maxSpeed="11.11" length="8.0" accel="2.6" decel="4.5" sigma="0.5" minGap="2.5" color="128,128,128" />
    <vType id="motorcycle" maxSpeed="16.67" length="2.0" accel="2.6" decel="4.5" sigma="0.5" minGap="2.5" color="255,165,0" />
    <vType id="bicycle" maxSpeed="5.56" length="1.8" accel="2.6" decel="4.5" sigma="0.5" minGap="2.5" color="0,200,0" />
    <route id="route_0" edges="29181613#5 10873186#4 10873186#5 10873186#6 10873186#7 10873186#8 10873186#9 10873186#0 10873186#1 10873191#0" />
    <route id="route_1" edges="690516091#0 690516091#1 10873186#9 10873186#0 10873186#1 10873191#0 10873191#1 10873191#2" />
    <route id="route_2" edges="28718647#2 28718647#3 690516091#1 10873186#9 10873186#0 10873186#1 10873191#0" />
    <route id="route_3" edges="-711671304 28718647#3 690516091#1 10873186#9 10873186#0 28718874#0 10873193#0" />
    <route id="route_4" edges="29181613#5 10873186#4 10873186#5 10873186#6 10873186#7 10873186#8 10873186#9 10873186#0 28718874#0 28718874#1" />
    <route id="route_5" edges="10873191#2 10873191#3 10873191#4 10873191#5" />
    <route id="route_6" edges="29181613#1 29181613#2 961982432#0 961982432#1" />
    <route id="route_7" edges="28718647#1 28718647#2 28718647#3 690516091#1 10873186#9 10873186#0 28718874#0 28718874#1 28718874#2" />
    <route id="route_8" edges="29181613#4 29181613#5 10873186#4 192591565#0 192591565#1" />
    <route id="route_9" edges="28718647#1 28718647#2 28718647#3 690516091#1 10873186#9 10873186#0 28718874#0 10873193#0" />
    <route id="route_10" edges="29181613#2 29181613#3 29181613#4 29181613#5" />
    <route id="route_11" edges="50211834#0 50211834#1 10873186#6 305873958#0" />
    <route id="route_12" edges="29181613#5 10873186#4 192591565#0 192591565#1 192591565#2" />
    <route id="route_13" edges="29181613#2 29181613#3 29181613#4 29181613#5 10873186#4 10873186#5 10873186#6 10873186#7 10873186#8 10873186#9 10873186#0 28718874#0 10873193#0 10873193#1 10873193#2" />
    <route id="route_14" edges="28718647#2 28718647#3 690516091#1 10873186#9 10873186#0 28718874#0 10873193#0 10873193#1" />
    <route id="route_15" edges="-711671304 28718647#3 690516091#1 10873186#9 10873186#0 28718874#0 10873193#0 305873957#0" />
    <route id="route_16" edges="50211834#1 10873186#6 10873186#7 10873186#8 10873186#9 10873186#0 28718874#0 10873193#0 10873193#1 10873193#2" />
    <route id="route_17" edges="690516091#1 10873186#9 10873186#0 10873186#1 10873186#2 10873186#3 10873186#4 10873186#5 10873186#6 305873958#0 305873958#1 305873958#2 305873958#3-AddedOnRampEdge" />
    <route id="route_18" edges="29181613#4 29181613#5 10873186#4 10873186#5 10873186#6 10873186#7 10873186#8 10873186#9 10873186#0 10873186#1 10873191#0 10873191#1 10873191#2 10873191#3 10873191#4 10873191#5" />
    <route id="route_19" edges="-711671304 28718647#3 138136500#0 138136500#1" />
    <flow id="flow_0" type="passenger" route="route_0" begin="25200" end="25800" number="11" departLane="best" departSpeed="random" />
    <flow id="flow_1" type="passenger" route="route_1" begin="25200" end="25800" number="11" departLane="best" departSpeed="random" />
    <flow id="flow_2" type="passenger" route="route_2" begin="25200" end="25800" number="11" departLane="best" departSpeed="random" />
    <flow id="flow_3" type="passenger" route="route_3" begin="25200" end="25800" number="11" departLane="best" departSpeed="random" />
    <flow id="flow_4" type="passenger" route="route_4" begin="25200" end="25800" number="11" departLane="best" departSpeed="random" />
    <flow id="flow_5" type="passenger" route="route_5" begin="25200" end="25800" number="11" departLane="best" departSpeed="random" />
    <flow id="flow_6" type="passenger" route="route_6" begin="25200" end="25800" number="11" departLane="best" departSpeed="random" />
    <flow id="flow_7" type="passenger" route="route_7" begin="25200" end="25800" number="11" departLane="best" departSpeed="random" />
    <flow id="flow_8" type="passenger" route="route_8" begin="25200" end="25800" number="11" departLane="best" departSpeed="random" />
    <flow id="flow_9" type="passenger" route="route_9" begin="25200" end="25800" number="11" departLane="best" departSpeed="random" />
    <flow id="flow_10" type="passenger" route="route_10" begin="25200" end="25800" number="11" departLane="best" departSpeed="random" />
    <flow id="flow_11" type="passenger" route="route_11" begin="25200" end="25800" number="11" departLane="best" departSpeed="random" />
    <flow id="flow_12" type="passenger" route="route_12" begin="25200" end="25800" number="11" departLane="best" departSpeed="random" />
    <flow id="flow_13" type="passenger" route="route_13" begin="25200" end="25800" number="11" departLane="best" departSpeed="random" />
    <flow id="flow_14" type="passenger" route="route_14" begin="25200" end="25800" number="11" departLane="best" departSpeed="random" />
    <flow id="flow_15" type="passenger" route="route_15" begin="25200" end="25800" number="11" departLane="best" departSpeed="random" />
    <flow id="flow_16" type="passenger" route="route_16" begin="25200" end="25800" number="11" departLane="best" departSpeed="random" />
    <flow id="flow_17" type="passenger" route="route_17" begin="25200" end="25800" number="11" departLane="best" departSpeed="random" />
    <flow id="flow_18" type="passenger" route="route_18" begin="25200" end="25800" number="11" departLane="best" departSpeed="random" />
    <flow id="flow_19" type="passenger" route="route_19" begin="25200" end="25800" number="11" departLane="best" departSpeed="random" />
    <vehicle id="microbus_20" type="microbus" depart="25206" departLane="best" departSpeed="random">
        <route edges="50211834#0 50211834#1 10873186#6 305873958#0" />
        <stop lane="50211834#0_0" startPos="9.9" endPos="19.9" duration="49" parking="false" />
        <stop lane="50211834#1_0" startPos="8.0" endPos="18.0" duration="26" parking="false" />
    </vehicle>
    <vehicle id="microbus_21" type="microbus" depart="25211" departLane="best" departSpeed="random">
        <route edges="29181613#5 10873186#4 10873186#5 10873186#6 10873186#7 10873186#8 10873186#9 10873186#0 10873186#1 10873191#0" />
    </vehicle>
    <vehicle id="microbus_22" type="microbus" depart="25216" departLane="best" departSpeed="random">
        <route edges="28718647#2 28718647#3 690516091#1 10873186#9 10873186#0 28718874#0 10873193#0 10873193#1" />
        <stop lane="28718874#0_0" startPos="6.8" endPos="16.8" duration="37" parking="false" />
        <stop lane="10873193#0_0" startPos="11.4" endPos="21.4" duration="13" parking="false" />
        <stop lane="10873193#1_0" startPos="10.3" endPos="20.3" duration="15" parking="false" />
    </vehicle>
    <vehicle id="microbus_23" type="microbus" depart="25225" departLane="best" departSpeed="random">
        <route edges="29181613#2 29181613#3 29181613#4 29181613#5" />
    </vehicle>
    <vehicle id="microbus_24" type="microbus" depart="25233" departLane="best" departSpeed="random">
        <route edges="28718647#1 28718647#2 28718647#3 690516091#1 10873186#9 10873186#0 28718874#0 10873193#0" />
        <stop lane="28718874#0_0" startPos="14.6" endPos="24.6" duration="43" parking="false" />
        <stop lane="10873193#0_0" startPos="8.4" endPos="18.4" duration="11" parking="false" />
    </vehicle>
    <vehicle id="microbus_25" type="microbus" depart="25237" departLane="best" departSpeed="random">
        <route edges="29181613#1 29181613#2 961982432#0 961982432#1" />
        <stop lane="29181613#1_0" startPos="5.6" endPos="15.6" duration="58" parking="false" />
    </vehicle>
    <vehicle id="microbus_26" type="microbus" depart="25247" departLane="best" departSpeed="random">
        <route edges="29181613#1 29181613#2 961982432#0 961982432#1" />
        <stop lane="29181613#1_0" startPos="7.6" endPos="17.6" duration="43" parking="false" />
    </vehicle>
    <vehicle id="microbus_27" type="microbus" depart="25251" departLane="best" departSpeed="random">
        <route edges="29181613#4 29181613#5 10873186#4 10873186#5 10873186#6 10873186#7 10873186#8 10873186#9 10873186#0 10873186#1 10873191#0 10873191#1 10873191#2 10873191#3 10873191#4 10873191#5" />
    </vehicle>
    <vehicle id="microbus_28" type="microbus" depart="25257" departLane="best" departSpeed="random">
        <route edges="-711671304 28718647#3 690516091#1 10873186#9 10873186#0 28718874#0 10873193#0 305873957#0" />
        <stop lane="28718874#0_0" startPos="7.2" endPos="17.2" duration="39" parking="false" />
        <stop lane="10873193#0_0" startPos="6.3" endPos="16.3" duration="32" parking="false" />
    </vehicle>
    <vehicle id="microbus_29" type="microbus" depart="25267" departLane="best" departSpeed="random">
        <route edges="29181613#4 29181613#5 10873186#4 192591565#0 192591565#1" />
        <stop lane="192591565#0_0" startPos="9.9" endPos="19.9" duration="22" parking="false" />
        <stop lane="192591565#1_0" startPos="7.2" endPos="17.2" duration="48" parking="false" />
    </vehicle>
    <vehicle id="microbus_30" type="microbus" depart="25275" departLane="best" departSpeed="random">
        <route edges="29181613#5 10873186#4 10873186#5 10873186#6 10873186#7 10873186#8 10873186#9 10873186#0 28718874#0 28718874#1" />
        <stop lane="28718874#0_0" startPos="9.3" endPos="19.3" duration="15" parking="false" />
        <stop lane="28718874#1_0" startPos="11.7" endPos="21.7" duration="56" parking="false" />
    </vehicle>
    <vehicle id="microbus_31" type="microbus" depart="25282" departLane="best" departSpeed="random">
        <route edges="29181613#4 29181613#5 10873186#4 192591565#0 192591565#1" />
        <stop lane="192591565#0_0" startPos="9.0" endPos="19.0" duration="18" parking="false" />
        <stop lane="192591565#1_0" startPos="5.4" endPos="15.4" duration="19" parking="false" />
    </vehicle>
    <vehicle id="microbus_32" type="microbus" depart="25287" departLane="best" departSpeed="random">
        <route edges="29181613#4 29181613#5 10873186#4 10873186#5 10873186#6 10873186#7 10873186#8 10873186#9 10873186#0 10873186#1 10873191#0 10873191#1 10873191#2 10873191#3 10873191#4 10873191#5" />
    </vehicle>
    <vehicle id="microbus_33" type="microbus" depart="25292" departLane="best" departSpeed="random">
        <route edges="28718647#2 28718647#3 690516091#1 10873186#9 10873186#0 28718874#0 10873193#0 10873193#1" />
        <stop lane="28718874#0_0" startPos="5.0" endPos="15.0" duration="51" parking="false" />
        <stop lane="10873193#0_0" startPos="10.7" endPos="20.7" duration="43" parking="false" />
        <stop lane="10873193#1_0" startPos="5.5" endPos="15.5" duration="16" parking="false" />
    </vehicle>
    <vehicle id="microbus_34" type="microbus" depart="25300" departLane="best" departSpeed="random">
        <route edges="-711671304 28718647#3 138136500#0 138136500#1" />
    </vehicle>
    <vehicle id="microbus_35" type="microbus" depart="25305" departLane="best" departSpeed="random">
        <route edges="29181613#5 10873186#4 192591565#0 192591565#1 192591565#2" />
        <stop lane="192591565#0_0" startPos="7.9" endPos="17.9" duration="60" parking="false" />
        <stop lane="192591565#1_0" startPos="9.0" endPos="19.0" duration="18" parking="false" />
    </vehicle>
    <vehicle id="microbus_36" type="microbus" depart="25313" departLane="best" departSpeed="random">
        <route edges="29181613#5 10873186#4 192591565#0 192591565#1 192591565#2" />
        <stop lane="192591565#0_0" startPos="9.1" endPos="19.1" duration="34" parking="false" />
        <stop lane="192591565#1_0" startPos="14.7" endPos="24.7" duration="53" parking="false" />
    </vehicle>
    <vehicle id="microbus_37" type="microbus" depart="25320" departLane="best" departSpeed="random">
        <route edges="28718647#2 28718647#3 690516091#1 10873186#9 10873186#0 10873186#1 10873191#0" />
    </vehicle>
    <vehicle id="microbus_38" type="microbus" depart="25328" departLane="best" departSpeed="random">
        <route edges="29181613#4 29181613#5 10873186#4 192591565#0 192591565#1" />
        <stop lane="192591565#0_0" startPos="13.6" endPos="23.6" duration="42" parking="false" />
        <stop lane="192591565#1_0" startPos="12.8" endPos="22.8" duration="58" parking="false" />
    </vehicle>
    <vehicle id="microbus_39" type="microbus" depart="25335" departLane="best" departSpeed="random">
        <route edges="28718647#1 28718647#2 28718647#3 690516091#1 10873186#9 10873186#0 28718874#0 10873193#0" />
        <stop lane="28718874#0_0" startPos="6.1" endPos="16.1" duration="22" parking="false" />
        <stop lane="10873193#0_0" startPos="7.4" endPos="17.4" duration="58" parking="false" />
    </vehicle>
    <vehicle id="microbus_40" type="microbus" depart="25340" departLane="best" departSpeed="random">
        <route edges="28718647#2 28718647#3 690516091#1 10873186#9 10873186#0 10873186#1 10873191#0" />
    </vehicle>
    <vehicle id="microbus_41" type="microbus" depart="25348" departLane="best" departSpeed="random">
        <route edges="50211834#0 50211834#1 10873186#6 305873958#0" />
        <stop lane="50211834#0_0" startPos="10.2" endPos="20.2" duration="59" parking="false" />
        <stop lane="50211834#1_0" startPos="8.7" endPos="18.7" duration="57" parking="false" />
    </vehicle>
    <vehicle id="microbus_42" type="microbus" depart="25360" departLane="best" departSpeed="random">
        <route edges="29181613#5 10873186#4 10873186#5 10873186#6 10873186#7 10873186#8 10873186#9 10873186#0 10873186#1 10873191#0" />
    </vehicle>
    <vehicle id="microbus_43" type="microbus" depart="25365" departLane="best" departSpeed="random">
        <route edges="29181613#5 10873186#4 10873186#5 10873186#6 10873186#7 10873186#8 10873186#9 10873186#0 10873186#1 10873191#0" />
    </vehicle>
    <vehicle id="microbus_44" type="microbus" depart="25368" departLane="best" departSpeed="random">
        <route edges="10873191#2 10873191#3 10873191#4 10873191#5" />
    </vehicle>
    <vehicle id="microbus_45" type="microbus" depart="25375" departLane="best" departSpeed="random">
        <route edges="50211834#0 50211834#1 10873186#6 305873958#0" />
        <stop lane="50211834#0_0" startPos="9.0" endPos="19.0" duration="12" parking="false" />
        <stop lane="50211834#1_0" startPos="10.1" endPos="20.1" duration="51" parking="false" />
    </vehicle>
    <vehicle id="microbus_46" type="microbus" depart="25383" departLane="best" departSpeed="random">
        <route edges="28718647#1 28718647#2 28718647#3 690516091#1 10873186#9 10873186#0 28718874#0 28718874#1 28718874#2" />
        <stop lane="28718874#0_0" startPos="8.0" endPos="18.0" duration="37" parking="false" />
        <stop lane="28718874#1_0" startPos="7.9" endPos="17.9" duration="18" parking="false" />
    </vehicle>
    <vehicle id="microbus_47" type="microbus" depart="25393" departLane="best" departSpeed="random">
        <route edges="29181613#2 29181613#3 29181613#4 29181613#5" />
    </vehicle>
    <vehicle id="microbus_48" type="microbus" depart="25399" departLane="best" departSpeed="random">
        <route edges="-711671304 28718647#3 690516091#1 10873186#9 10873186#0 28718874#0 10873193#0 305873957#0" />
        <stop lane="28718874#0_0" startPos="5.3" endPos="15.3" duration="42" parking="false" />
        <stop lane="10873193#0_0" startPos="11.5" endPos="21.5" duration="46" parking="false" />
    </vehicle>
    <vehicle id="microbus_49" type="microbus" depart="25409" departLane="best" departSpeed="random">
        <route edges="29181613#2 29181613#3 29181613#4 29181613#5 10873186#4 10873186#5 10873186#6 10873186#7 10873186#8 10873186#9 10873186#0 28718874#0 10873193#0 10873193#1 10873193#2" />
        <stop lane="28718874#0_0" startPos="10.4" endPos="20.4" duration="60" parking="false" />
        <stop lane="10873193#0_0" startPos="14.1" endPos="24.1" duration="37" parking="false" />
        <stop lane="10873193#1_0" startPos="5.9" endPos="15.9" duration="33" parking="false" />
    </vehicle>
    <vehicle id="microbus_50" type="microbus" depart="25411" departLane="best" departSpeed="random">
        <route edges="50211834#0 50211834#1 10873186#6 305873958#0" />
        <stop lane="50211834#0_0" startPos="12.8" endPos="22.8" duration="10" parking="false" />
        <stop lane="50211834#1_0" startPos="13.1" endPos="23.1" duration="10" parking="false" />
    </vehicle>
    <vehicle id="microbus_51" type="microbus" depart="25422" departLane="best" departSpeed="random">
        <route edges="-711671304 28718647#3 138136500#0 138136500#1" />
    </vehicle>
    <vehicle id="microbus_52" type="microbus" depart="25430" departLane="best" departSpeed="random">
        <route edges="28718647#2 28718647#3 690516091#1 10873186#9 10873186#0 10873186#1 10873191#0" />
    </vehicle>
    <vehicle id="microbus_53" type="microbus" depart="25431" departLane="best" departSpeed="random">
        <route edges="50211834#1 10873186#6 10873186#7 10873186#8 10873186#9 10873186#0 28718874#0 10873193#0 10873193#1 10873193#2" />
        <stop lane="28718874#0_0" startPos="7.7" endPos="17.7" duration="55" parking="false" />
        <stop lane="10873193#0_0" startPos="13.2" endPos="23.2" duration="14" parking="false" />
        <stop lane="10873193#1_0" startPos="8.3" endPos="18.3" duration="17" parking="false" />
    </vehicle>
    <vehicle id="microbus_54" type="microbus" depart="25441" departLane="best" departSpeed="random">
        <route edges="29181613#1 29181613#2 961982432#0 961982432#1" />
        <stop lane="29181613#1_0" startPos="9.7" endPos="19.7" duration="48" parking="false" />
    </vehicle>
    <vehicle id="microbus_55" type="microbus" depart="25448" departLane="best" departSpeed="random">
        <route edges="690516091#1 10873186#9 10873186#0 10873186#1 10873186#2 10873186#3 10873186#4 10873186#5 10873186#6 305873958#0 305873958#1 305873958#2 305873958#3-AddedOnRampEdge" />
    </vehicle>
    <vehicle id="microbus_56" type="microbus" depart="25458" departLane="best" departSpeed="random">
        <route edges="29181613#5 10873186#4 10873186#5 10873186#6 10873186#7 10873186#8 10873186#9 10873186#0 10873186#1 10873191#0" />
    </vehicle>
    <vehicle id="microbus_57" type="microbus" depart="25464" departLane="best" departSpeed="random">
        <route edges="-711671304 28718647#3 690516091#1 10873186#9 10873186#0 28718874#0 10873193#0 305873957#0" />
        <stop lane="28718874#0_0" startPos="12.6" endPos="22.6" duration="29" parking="false" />
        <stop lane="10873193#0_0" startPos="5.9" endPos="15.9" duration="41" parking="false" />
    </vehicle>
    <vehicle id="microbus_58" type="microbus" depart="25468" departLane="best" departSpeed="random">
        <route edges="28718647#2 28718647#3 690516091#1 10873186#9 10873186#0 28718874#0 10873193#0 10873193#1" />
        <stop lane="28718874#0_0" startPos="5.8" endPos="15.8" duration="38" parking="false" />
        <stop lane="10873193#0_0" startPos="13.7" endPos="23.7" duration="44" parking="false" />
        <stop lane="10873193#1_0" startPos="5.2" endPos="15.2" duration="25" parking="false" />
    </vehicle>
    <vehicle id="microbus_59" type="microbus" depart="25474" departLane="best" departSpeed="random">
        <route edges="-711671304 28718647#3 690516091#1 10873186#9 10873186#0 28718874#0 10873193#0" />
        <stop lane="28718874#0_0" startPos="12.6" endPos="22.6" duration="25" parking="false" />
        <stop lane="10873193#0_0" startPos="8.8" endPos="18.8" duration="51" parking="false" />
    </vehicle>
    <vehicle id="microbus_60" type="microbus" depart="25485" departLane="best" departSpeed="random">
        <route edges="-711671304 28718647#3 138136500#0 138136500#1" />
    </vehicle>
    <vehicle id="microbus_61" type="microbus" depart="25489" departLane="best" departSpeed="random">
        <route edges="-711671304 28718647#3 690516091#1 10873186#9 10873186#0 28718874#0 10873193#0" />
        <stop lane="28718874#0_0" startPos="9.5" endPos="19.5" duration="50" parking="false" />
        <stop lane="10873193#0_0" startPos="5.3" endPos="15.3" duration="50" parking="false" />
    </vehicle>
    <vehicle id="microbus_62" type="microbus" depart="25500" departLane="best" departSpeed="random">
        <route edges="50211834#0 50211834#1 10873186#6 305873958#0" />
        <stop lane="50211834#0_0" startPos="7.5" endPos="17.5" duration="57" parking="false" />
        <stop lane="50211834#1_0" startPos="12.1" endPos="22.1" duration="54" parking="false" />
    </vehicle>
    <vehicle id="microbus_63" type="microbus" depart="25505" departLane="best" departSpeed="random">
        <route edges="29181613#5 10873186#4 10873186#5 10873186#6 10873186#7 10873186#8 10873186#9 10873186#0 10873186#1 10873191#0" />
    </vehicle>
    <vehicle id="microbus_64" type="microbus" depart="25509" departLane="best" departSpeed="random">
        <route edges="29181613#4 29181613#5 10873186#4 192591565#0 192591565#1" />
        <stop lane="192591565#0_0" startPos="12.7" endPos="22.7" duration="54" parking="false" />
        <stop lane="192591565#1_0" startPos="11.8" endPos="21.8" duration="55" parking="false" />
    </vehicle>
    <vehicle id="microbus_65" type="microbus" depart="25515" departLane="best" departSpeed="random">
        <route edges="28718647#1 28718647#2 28718647#3 690516091#1 10873186#9 10873186#0 28718874#0 10873193#0" />
        <stop lane="28718874#0_0" startPos="14.2" endPos="24.2" duration="14" parking="false" />
        <stop lane="10873193#0_0" startPos="11.0" endPos="21.0" duration="10" parking="false" />
    </vehicle>
    <vehicle id="microbus_66" type="microbus" depart="25527" departLane="best" departSpeed="random">
        <route edges="-711671304 28718647#3 690516091#1 10873186#9 10873186#0 28718874#0 10873193#0" />
        <stop lane="28718874#0_0" startPos="9.9" endPos="19.9" duration="38" parking="false" />
        <stop lane="10873193#0_0" startPos="6.9" endPos="16.9" duration="10" parking="false" />
    </vehicle>
    <vehicle id="microbus_67" type="microbus" depart="25533" departLane="best" departSpeed="random">
        <route edges="-711671304 28718647#3 690516091#1 10873186#9 10873186#0 28718874#0 10873193#0" />
        <stop lane="28718874#0_0" startPos="14.0" endPos="24.0" duration="57" parking="false" />
        <stop lane="10873193#0_0" startPos="13.8" endPos="23.8" duration="58" parking="false" />
    </vehicle>
    <vehicle id="microbus_68" type="microbus" depart="25537" departLane="best" departSpeed="random">
        <route edges="-711671304 28718647#3 138136500#0 138136500#1" />
    </vehicle>
    <vehicle id="microbus_69" type="microbus" depart="25549" departLane="best" departSpeed="random">
        <route edges="28718647#2 28718647#3 690516091#1 10873186#9 10873186#0 10873186#1 10873191#0" />
    </vehicle>
    <vehicle id="microbus_70" type="microbus" depart="25555" departLane="best" departSpeed="random">
        <route edges="29181613#5 10873186#4 10873186#5 10873186#6 10873186#7 10873186#8 10873186#9 10873186#0 10873186#1 10873191#0" />
    </vehicle>
    <vehicle id="microbus_71" type="microbus" depart="25557" departLane="best" departSpeed="random">
        <route edges="29181613#5 10873186#4 10873186#5 10873186#6 10873186#7 10873186#8 10873186#9 10873186#0 10873186#1 10873191#0" />
    </vehicle>
    <vehicle id="microbus_72" type="microbus" depart="25568" departLane="best" departSpeed="random">
        <route edges="29181613#4 29181613#5 10873186#4 192591565#0 192591565#1" />
        <stop lane="192591565#0_0" startPos="14.8" endPos="24.8" duration="17" parking="false" />
        <stop lane="192591565#1_0" startPos="13.8" endPos="23.8" duration="20" parking="false" />
    </vehicle>
    <vehicle id="microbus_73" type="microbus" depart="25574" departLane="best" departSpeed="random">
        <route edges="-711671304 28718647#3 690516091#1 10873186#9 10873186#0 28718874#0 10873193#0 305873957#0" />
        <stop lane="28718874#0_0" startPos="14.0" endPos="24.0" duration="21" parking="false" />
        <stop lane="10873193#0_0" startPos="12.0" endPos="22.0" duration="59" parking="false" />
    </vehicle>
    <vehicle id="microbus_74" type="microbus" depart="25578" departLane="best" departSpeed="random">
        <route edges="29181613#5 10873186#4 192591565#0 192591565#1 192591565#2" />
        <stop lane="192591565#0_0" startPos="12.2" endPos="22.2" duration="60" parking="false" />
        <stop lane="192591565#1_0" startPos="11.1" endPos="21.1" duration="15" parking="false" />
    </vehicle>
    <vehicle id="microbus_75" type="microbus" depart="25589" departLane="best" departSpeed="random">
        <route edges="29181613#5 10873186#4 192591565#0 192591565#1 192591565#2" />
        <stop lane="192591565#0_0" startPos="13.6" endPos="23.6" duration="46" parking="false" />
        <stop lane="192591565#1_0" startPos="7.8" endPos="17.8" duration="12" parking="false" />
    </vehicle>
    <vehicle id="microbus_76" type="microbus" depart="25593" departLane="best" departSpeed="random">
        <route edges="690516091#1 10873186#9 10873186#0 10873186#1 10873186#2 10873186#3 10873186#4 10873186#5 10873186#6 305873958#0 305873958#1 305873958#2 305873958#3-AddedOnRampEdge" />
    </vehicle>
    <vehicle id="microbus_77" type="microbus" depart="25601" departLane="best" departSpeed="random">
        <route edges="28718647#1 28718647#2 28718647#3 690516091#1 10873186#9 10873186#0 28718874#0 10873193#0" />
        <stop lane="28718874#0_0" startPos="8.6" endPos="18.6" duration="44" parking="false" />
        <stop lane="10873193#0_0" startPos="11.5" endPos="21.5" duration="41" parking="false" />
    </vehicle>
    <vehicle id="microbus_78" type="microbus" depart="25610" departLane="best" departSpeed="random">
        <route edges="29181613#1 29181613#2 961982432#0 961982432#1" />
        <stop lane="29181613#1_0" startPos="14.7" endPos="24.7" duration="47" parking="false" />
    </vehicle>
    <vehicle id="microbus_79" type="microbus" depart="25613" departLane="best" departSpeed="random">
        <route edges="29181613#2 29181613#3 29181613#4 29181613#5 10873186#4 10873186#5 10873186#6 10873186#7 10873186#8 10873186#9 10873186#0 28718874#0 10873193#0 10873193#1 10873193#2" />
        <stop lane="28718874#0_0" startPos="11.2" endPos="21.2" duration="35" parking="false" />
        <stop lane="10873193#0_0" startPos="8.4" endPos="18.4" duration="40" parking="false" />
        <stop lane="10873193#1_0" startPos="13.7" endPos="23.7" duration="19" parking="false" />
    </vehicle>
    <vehicle id="microbus_80" type="microbus" depart="25620" departLane="best" departSpeed="random">
        <route edges="28718647#1 28718647#2 28718647#3 690516091#1 10873186#9 10873186#0 28718874#0 28718874#1 28718874#2" />
        <stop lane="28718874#0_0" startPos="9.6" endPos="19.6" duration="59" parking="false" />
        <stop lane="28718874#1_0" startPos="14.8" endPos="24.8" duration="32" parking="false" />
    </vehicle>
    <vehicle id="microbus_81" type="microbus" depart="25632" departLane="best" departSpeed="random">
        <route edges="29181613#5 10873186#4 192591565#0 192591565#1 192591565#2" />
        <stop lane="192591565#0_0" startPos="9.4" endPos="19.4" duration="33" parking="false" />
        <stop lane="192591565#1_0" startPos="10.3" endPos="20.3" duration="22" parking="false" />
    </vehicle>
    <vehicle id="microbus_82" type="microbus" depart="25640" departLane="best" departSpeed="random">
        <route edges="690516091#0 690516091#1 10873186#9 10873186#0 10873186#1 10873191#0 10873191#1 10873191#2" />
    </vehicle>
    <vehicle id="microbus_83" type="microbus" depart="25641" departLane="best" departSpeed="random">
        <route edges="690516091#1 10873186#9 10873186#0 10873186#1 10873186#2 10873186#3 10873186#4 10873186#5 10873186#6 305873958#0 305873958#1 305873958#2 305873958#3-AddedOnRampEdge" />
    </vehicle>
    <vehicle id="microbus_84" type="microbus" depart="25648" departLane="best" departSpeed="random">
        <route edges="29181613#4 29181613#5 10873186#4 10873186#5 10873186#6 10873186#7 10873186#8 10873186#9 10873186#0 10873186#1 10873191#0 10873191#1 10873191#2 10873191#3 10873191#4 10873191#5" />
    </vehicle>
    <vehicle id="microbus_85" type="microbus" depart="25658" departLane="best" departSpeed="random">
        <route edges="-711671304 28718647#3 690516091#1 10873186#9 10873186#0 28718874#0 10873193#0 305873957#0" />
        <stop lane="28718874#0_0" startPos="8.4" endPos="18.4" duration="25" parking="false" />
        <stop lane="10873193#0_0" startPos="13.8" endPos="23.8" duration="55" parking="false" />
    </vehicle>
    <vehicle id="microbus_86" type="microbus" depart="25668" departLane="best" departSpeed="random">
        <route edges="29181613#4 29181613#5 10873186#4 10873186#5 10873186#6 10873186#7 10873186#8 10873186#9 10873186#0 10873186#1 10873191#0 10873191#1 10873191#2 10873191#3 10873191#4 10873191#5" />
    </vehicle>
    <vehicle id="microbus_87" type="microbus" depart="25669" departLane="best" departSpeed="random">
        <route edges="29181613#4 29181613#5 10873186#4 10873186#5 10873186#6 10873186#7 10873186#8 10873186#9 10873186#0 10873186#1 10873191#0 10873191#1 10873191#2 10873191#3 10873191#4 10873191#5" />
    </vehicle>
    <vehicle id="microbus_88" type="microbus" depart="25678" departLane="best" departSpeed="random">