<?xml version='1.0' encoding='utf-8'?>
<routes>
    <vType id="passenger" maxSpeed="13.89" length="4.5" accel="2.6" decel="4.5" sigma="0.5" minGap="2.5" color="255,255,255" />
    <vType id="taxi" maxSpeed="13.89" length="4.5" accel="2.6" decel="4.5" sigma="0.5" minGap="2.5" color="255,200,0" />
    <vType id="microbus" maxSpeed="11.11" length="6.0" accel="2.6" decel="4.5" sigma="0.5" minGap="2.5" color="0,100,255" />
    <vType id="bus" maxSpeed="11.11" length="12.0" accel="2.6" decel="4.5" sigma="0.5" minGap="2.5" color="255,0,0" />
    <vType id="truck" maxSpeed="11.11" length="8.0" accel="2.6" decel="4.5" sigma="0.5" minGap="2.5" color="128,128,128" />
    <vType id="motorcycle" maxSpeed="16.67" length="2.0" accel="2.6" decel="4.5" sigma="0.5" minGap="2.5" color="255,165,0" />
    <vType id="bicycle" maxSpeed="5.56" length="1.8" accel="2.6" decel="4.5" sigma="0.5" minGap="2.5" color="0,200,0" />
    <route id="route_0" edges="29181613#5 10873186#4 10873186#5 10873186#6 10873186#7 10873186#8 10873186#9 10873186#0 10873186#1 10873191#0" />
    <route id="route_1" edges="690516091#0 690516091#1 10873186#9 10873186#0 10873186#1 10873191#0 10873191#1 10873191#2" />
    <route id="route_2" edges="28718647#2 28718647#3 690516091#1 10873186#9 10873186#0 10873186#1 10873191#0" />
    <route id="route_3" edges="-711671304 28718647#3 690516091#1 10873186#9 10873186#0 28718874#0 10873193#0" />
    <route id="route_4" edges="29181613#5 10873186#4 10873186#5 10873186#6 10873186#7 10873186#8 10873186#9 10873186#0 28718874#0 28718874#1" />
    <route id="route_5" edges="10873191#2 10873191#3 10873191#4 10873191#5" />
    <route id="route_6" edges="29181613#1 29181613#2 961982432#0 961982432#1" />
    <route id="route_7" edges="28718647#1 28718647#2 28718647#3 690516091#1 10873186#9 10873186#0 28718874#0 28718874#1 28718874#2" />
    <route id="route_8" edges="29181613#4 29181613#5 10873186#4 192591565#0 192591565#1" />
    <route id="route_9" edges="28718647#1 28718647#2 28718647#3 690516091#1 10873186#9 10873186#0 28718874#0 10873193#0" />
    <route id="route_10" edges="29181613#2 29181613#3 29181613#4 29181613#5" />
    <route id="route_11" edges="50211834#0 50211834#1 10873186#6 305873958#0" />
    <route id="route_12" edges="29181613#5 10873186#4 192591565#0 192591565#1 192591565#2" />
    <route id="route_13" edges="29181613#2 29181613#3 29181613#4 29181613#5 10873186#4 10873186#5 10873186#6 10873186#7 10873186#8 10873186#9 10873186#0 28718874#0 10873193#0 10873193#1 10873193#2" />
    <route id="route_14" edges="28718647#2 28718647#3 690516091#1 10873186#9 10873186#0 28718874#0 10873193#0 10873193#1" />
    <route id="route_15" edges="-711671304 28718647#3 690516091#1 10873186#9 10873186#0 28718874#0 10873193#0 305873957#0" />
    <route id="route_16" edges="50211834#1 10873186#6 10873186#7 10873186#8 10873186#9 10873186#0 28718874#0 10873193#0 10873193#1 10873193#2" />
    <route id="route_17" edges="690516091#1 10873186#9 10873186#0 10873186#1 10873186#2 10873186#3 10873186#4 10873186#5 10873186#6 305873958#0 305873958#1 305873958#2 305873958#3-AddedOnRampEdge" />
    <route id="route_18" edges="29181613#4 29181613#5 10873186#4 10873186#5 10873186#6 10873186#7 10873186#8 10873186#9 10873186#0 10873186#1 10873191#0 10873191#1 10873191#2 10873191#3 10873191#4 10873191#5" />
    <route id="route_19" edges="-711671304 28718647#3 138136500#0 138136500#1" />
    <flow id="flow_0" type="passenger" route="route_0" begin="43200" end="43800" number="14" departLane="best" departSpeed="random" />
    <flow id="flow_1" type="passenger" route="route_1" begin="43200" end="43800" number="14" departLane="best" departSpeed="random" />
    <flow id="flow_2" type="passenger" route="route_2" begin="43200" end="43800" number="14" departLane="best" departSpeed="random" />
    <flow id="flow_3" type="passenger" route="route_3" begin="43200" end="43800" number="14" departLane="best" departSpeed="random" />
    <flow id="flow_4" type="passenger" route="route_4" begin="43200" end="43800" number="14" departLane="best" departSpeed="random" />
    <flow id="flow_5" type="passenger" route="route_5" begin="43200" end="43800" number="14" departLane="best" departSpeed="random" />
    <flow id="flow_6" type="passenger" route="route_6" begin="43200" end="43800" number="14" departLane="best" departSpeed="random" />
    <flow id="flow_7" type="passenger" route="route_7" begin="43200" end="43800" number="14" departLane="best" departSpeed="random" />
    <flow id="flow_8" type="passenger" route="route_8" begin="43200" end="43800" number="14" departLane="best" departSpeed="random" />
    <flow id="flow_9" type="passenger" route="route_9" begin="43200" end="43800" number="14" departLane="best" departSpeed="random" />
    <flow id="flow_10" type="passenger" route="route_10" begin="43200" end="43800" number="14" departLane="best" departSpeed="random" />
    <flow id="flow_11" type="passenger" route="route_11" begin="43200" end="43800" number="14" departLane="best" departSpeed="random" />
    <flow id="flow_12" type="passenger" route="route_12" begin="43200" end="43800" number="14" departLane="best" departSpeed="random" />
    <flow id="flow_13" type="passenger" route="route_13" begin="43200" end="43800" number="14" departLane="best" departSpeed="random" />
    <flow id="flow_14" type="passenger" route="route_14" begin="43200" end="43800" number="14" departLane="best" departSpeed="random" />
    <flow id="flow_15" type="passenger" route="route_15" begin="43200" end="43800" number="14" departLane="best" departSpeed="random" />
    <flow id="flow_16" type="passenger" route="route_16" begin="43200" end="43800" number="14" departLane="best" departSpeed="random" />
    <flow id="flow_17" type="passenger" route="route_17" begin="43200" end="43800" number="14" departLane="best" departSpeed="random" />
    <flow id="flow_18" type="passenger" route="route_18" begin="43200" end="43800" number="14" departLane="best" departSpeed="random" />
    <flow id="flow_19" type="passenger" route="route_19" begin="43200" end="43800" number="14" departLane="best" departSpeed="random" />
    <vehicle id="microbus_20" type="microbus" depart="43203" departLane="best" departSpeed="random">
        <route edges="28718647#2 28718647#3 690516091#1 10873186#9 10873186#0 28718874#0 10873193#0 10873193#1" />
        <stop lane="28718874#0_0" startPos="9.2" endPos="19.2" duration="57" parking="false" />
        <stop lane="10873193#0_0" startPos="12.5" endPos="22.5" duration="29" parking="false" />
        <stop lane="10873193#1_0" startPos="11.3" endPos="21.3" duration="24" parking="false" />
    </vehicle>
    <vehicle id="microbus_21" type="microbus" depart="43207" departLane="best" departSpeed="random">
        <route edges="29181613#5 10873186#4 10873186#5 10873186#6 10873186#7 10873186#8 10873186#9 10873186#0 10873186#1 10873191#0" />
    </vehicle>
    <vehicle id="microbus_22" type="microbus" depart="43212" departLane="best" departSpeed="random">
        <route edges="-711671304 28718647#3 690516091#1 10873186#9 10873186#0 28718874#0 10873193#0" />
        <stop lane="28718874#0_0" startPos="6.4" endPos="16.4" duration="33" parking="false" />
        <stop lane="10873193#0_0" startPos="7.3" endPos="17.3" duration="55" parking="false" />
    </vehicle>
    <vehicle id="microbus_23" type="microbus" depart="43219" departLane="best" departSpeed="random">
        <route edges="28718647#1 28718647#2 28718647#3 690516091#1 10873186#9 10873186#0 28718874#0 28718874#1 28718874#2" />
        <stop lane="28718874#0_0" startPos="10.0" endPos="20.0" duration="37" parking="false" />
        <stop lane="28718874#1_0" startPos="7.5" endPos="17.5" duration="18" parking="false" />
    </vehicle>
    <vehicle id="microbus_24" type="microbus" depart="43228" departLane="best" departSpeed="random">
        <route edges="28718647#2 28718647#3 690516091#1 10873186#9 10873186#0 28718874#0 10873193#0 10873193#1" />
        <stop lane="28718874#0_0" startPos="11.4" endPos="21.4" duration="18" parking="false" />
        <stop lane="10873193#0_0" startPos="8.7" endPos="18.7" duration="59" parking="false" />
        <stop lane="10873193#1_0" startPos="7.8" endPos="17.8" duration="44" parking="false" />
    </vehicle>
    <vehicle id="microbus_25" type="microbus" depart="43230" departLane="best" departSpeed="random">
        <route edges="29181613#2 29181613#3 29181613#4 29181613#5" />
    </vehicle>
    <vehicle id="microbus_26" type="microbus" depart="43236" departLane="best" departSpeed="random">
        <route edges="29181613#2 29181613#3 29181613#4 29181613#5 10873186#4 10873186#5 10873186#6 10873186#7 10873186#8 10873186#9 10873186#0 28718874#0 10873193#0 10873193#1 10873193#2" />
        <stop lane="28718874#0_0" startPos="5.4" endPos="15.4" duration="41" parking="false" />
        <stop lane="10873193#0_0" startPos="13.3" endPos="23.3" duration="46" parking="false" />
        <stop lane="10873193#1_0" startPos="12.3" endPos="22.3" duration="50" parking="false" />
    </vehicle>
    <vehicle id="microbus_27" type="microbus" depart="43243" departLane="best" departSpeed="random">
        <route edges="28718647#1 28718647#2 28718647#3 690516091#1 10873186#9 10873186#0 28718874#0 28718874#1 28718874#2" />
        <stop lane="28718874#0_0" startPos="13.8" endPos="23.8" duration="12" parking="false" />
        <stop lane="28718874#1_0" startPos="8.0" endPos="18.0" duration="51" parking="false" />
    </vehicle>
    <vehicle id="microbus_28" type="microbus" depart="43253" departLane="best" departSpeed="random">
        <route edges="50211834#1 10873186#6 10873186#7 10873186#8 10873186#9 10873186#0 28718874#0 10873193#0 10873193#1 10873193#2" />
        <stop lane="50211834#1_0" startPos="14.5" endPos="24.5" duration="31" parking="false" />
        <stop lane="28718874#0_0" startPos="12.4" endPos="22.4" duration="47" parking="false" />
        <stop lane="10873193#1_0" startPos="14.7" endPos="24.7" duration="48" parking="false" />
    </vehicle>
    <vehicle id="microbus_29" type="microbus" depart="43258" departLane="best" departSpeed="random">
        <route edges="-711671304 28718647#3 690516091#1 10873186#9 10873186#0 28718874#0 10873193#0 305873957#0" />
        <stop lane="28718874#0_0" startPos="12.5" endPos="22.5" duration="35" parking="false" />
        <stop lane="10873193#0_0" startPos="11.7" endPos="21.7" duration="25" parking="false" />
    </vehicle>
    <vehicle id="microbus_30" type="microbus" depart="43265" departLane="best" departSpeed="random">
        <route edges="28718647#1 28718647#2 28718647#3 690516091#1 10873186#9 10873186#0 28718874#0 10873193#0" />
        <stop lane="28718874#0_0" startPos="6.0" endPos="16.0" duration="10" parking="false" />
        <stop lane="10873193#0_0" startPos="8.0" endPos="18.0" duration="37" parking="false" />
    </vehicle>
    <vehicle id="microbus_31" type="microbus" depart="43267" departLane="best" departSpeed="random">
        <route edges="29181613#1 29181613#2 961982432#0 961982432#1" />
        <stop lane="29181613#1_0" startPos="6.2" endPos="16.2" duration="23" parking="false" />
    </vehicle>
    <vehicle id="microbus_32" type="microbus" depart="43273" departLane="best" departSpeed="random">
        <route edges="29181613#2 29181613#3 29181613#4 29181613#5" />
    </vehicle>
    <vehicle id="microbus_33" type="microbus" depart="43280" departLane="best" departSpeed="random">
        <route edges="690516091#0 690516091#1 10873186#9 10873186#0 10873186#1 10873191#0 10873191#1 10873191#2" />
    </vehicle>
    <vehicle id="microbus_34" type="microbus" depart="43285" departLane="best" departSpeed="random">
        <route edges="29181613#5 10873186#4 10873186#5 10873186#6 10873186#7 10873186#8 10873186#9 10873186#0 28718874#0 28718874#1" />
        <stop lane="28718874#0_0" startPos="8.4" endPos="18.4" duration="22" parking="false" />
        <stop lane="28718874#1_0" startPos="9.8" endPos="19.8" duration="22" parking="false" />
    </vehicle>
    <vehicle id="microbus_35" type="microbus" depart="43292" departLane="best" departSpeed="random">
        <route edges="29181613#2 29181613#3 29181613#4 29181613#5 10873186#4 10873186#5 10873186#6 10873186#7 10873186#8 10873186#9 10873186#0 28718874#0 10873193#0 10873193#1 10873193#2" />
        <stop lane="28718874#0_0" startPos="10.5" endPos="20.5" duration="57" parking="false" />
        <stop lane="10873193#0_0" startPos="7.2" endPos="17.2" duration="13" parking="false" />
        <stop lane="10873193#1_0" startPos="9.7" endPos="19.7" duration="26" parking="false" />
    </vehicle>
    <vehicle id="microbus_36" type="microbus" depart="43296" departLane="best" departSpeed="random">
        <route edges="28718647#2 28718647#3 690516091#1 10873186#9 10873186#0 28718874#0 10873193#0 10873193#1" />
        <stop lane="28718874#0_0" startPos="5.1" endPos="15.1" duration="56" parking="false" />
        <stop lane="10873193#1_0" startPos="14.4" endPos="24.4" duration="40" parking="false" />
    </vehicle>
    <vehicle id="microbus_37" type="microbus" depart="43304" departLane="best" departSpeed="random">
        <route edges="690516091#0 690516091#1 10873186#9 10873186#0 10873186#1 10873191#0 10873191#1 10873191#2" />
    </vehicle>
    <vehicle id="microbus_38" type="microbus" depart="43312" departLane="best" departSpeed="random">
        <route edges="28718647#2 28718647#3 690516091#1 10873186#9 10873186#0 10873186#1 10873191#0" />
    </vehicle>
    <vehicle id="microbus_39" type="microbus" depart="43316" departLane="best" departSpeed="random">
        <route edges="29181613#2 29181613#3 29181613#4 29181613#5 10873186#4 10873186#5 10873186#6 10873186#7 10873186#8 10873186#9 10873186#0 28718874#0 10873193#0 10873193#1 10873193#2" />
        <stop lane="10873193#0_0" startPos="14.4" endPos="24.4" duration="22" parking="false" />
        <stop lane="10873193#1_0" startPos="10.5" endPos="20.5" duration="40" parking="false" />
    </vehicle>
    <vehicle id="microbus_40" type="microbus" depart="43322" departLane="best" departSpeed="random">
        <route edges="29181613#1 29181613#2 961982432#0 961982432#1" />
        <stop lane="29181613#1_0" startPos="10.4" endPos="20.4" duration="29" parking="false" />
    </vehicle>
    <vehicle id="microbus_41" type="microbus" depart="43326" departLane="best" departSpeed="random">
        <route edges="29181613#5 10873186#4 192591565#0 192591565#1 192591565#2" />
        <stop lane="192591565#0_0" startPos="12.0" endPos="22.0" duration="22" parking="false" />
        <stop lane="192591565#1_0" startPos="14.3" endPos="24.3" duration="21" parking="false" />
    </vehicle>
    <vehicle id="microbus_42" type="microbus" depart="43333" departLane="best" departSpeed="random">
        <route edges="29181613#2 29181613#3 29181613#4 29181613#5" />
    </vehicle>
    <vehicle id="microbus_43" type="microbus" depart="43338" departLane="best" departSpeed="random">
        <route edges="28718647#1 28718647#2 28718647#3 690516091#1 10873186#9 10873186#0 28718874#0 10873193#0" />
        <stop lane="28718874#0_0" startPos="14.0" endPos="24.0" duration="47" parking="false" />
        <stop lane="10873193#0_0" startPos="7.8" endPos="17.8" duration="45" parking="false" />
    </vehicle>
    <vehicle id="microbus_44" type="microbus" depart="43347" departLane="best" departSpeed="random">
        <route edges="29181613#4 29181613#5 10873186#4 192591565#0 192591565#1" />
        <stop lane="192591565#0_0" startPos="12.9" endPos="22.9" duration="30" parking="false" />
        <stop lane="192591565#1_0" startPos="14.0" endPos="24.0" duration="34" parking="false" />
    </vehicle>
    <vehicle id="microbus_45" type="microbus" depart="43355" departLane="best" departSpeed="random">
        <route edges="-711671304 28718647#3 138136500#0 138136500#1" />
    </vehicle>
    <vehicle id="microbus_46" type="microbus" depart="43360" departLane="best" departSpeed="random">
        <route edges="29181613#2 29181613#3 29181613#4 29181613#5" />
    </vehicle>
    <vehicle id="microbus_47" type="microbus" depart="43366" departLane="best" departSpeed="random">
        <route edges="690516091#0 690516091#1 10873186#9 10873186#0 10873186#1 10873191#0 10873191#1 10873191#2" />
    </vehicle>
    <vehicle id="microbus_48" type="microbus" depart="43372" departLane="best" departSpeed="random">
        <route edges="29181613#1 29181613#2 961982432#0 961982432#1" />
        <stop lane="29181613#1_0" startPos="13.0" endPos="23.0" duration="11" parking="false" />
    </vehicle>
    <vehicle id="microbus_49" type="microbus" depart="43379" departLane="best" departSpeed="random">
        <route edges="50211834#0 50211834#1 10873186#6 305873958#0" />
        <stop lane="50211834#0_0" startPos="6.8" endPos="16.8" duration="27" parking="false" />
        <stop lane="50211834#1_0" startPos="15.0" endPos="25.0" duration="31" parking="false" />
    </vehicle>
    <vehicle id="microbus_50" type="microbus" depart="43380" departLane="best" departSpeed="random">
        <route edges="28718647#2 28718647#3 690516091#1 10873186#9 10873186#0 28718874#0 10873193#0 10873193#1" />
        <stop lane="28718874#0_0" startPos="10.8" endPos="20.8" duration="42" parking="false" />
        <stop lane="10873193#0_0" startPos="9.9" endPos="19.9" duration="55" parking="false" />
        <stop lane="10873193#1_0" startPos="13.0" endPos="23.0" duration="22" parking="false" />
    </vehicle>
    <vehicle id="microbus_51" type="microbus" depart="43386" departLane="best" departSpeed="random">
        <route edges="29181613#1 29181613#2 961982432#0 961982432#1" />
        <stop lane="29181613#1_0" startPos="10.6" endPos="20.6" duration="20" parking="false" />
    </vehicle>
    <vehicle id="microbus_52" type="microbus" depart="43393" departLane="best" departSpeed="random">
        <route edges="50211834#1 10873186#6 10873186#7 10873186#8 10873186#9 10873186#0 28718874#0 10873193#0 10873193#1 10873193#2" />
        <stop lane="50211834#1_0" startPos="8.8" endPos="18.8" duration="56" parking="false" />
        <stop lane="28718874#0_0" startPos="9.2" endPos="19.2" duration="45" parking="false" />
        <stop lane="10873193#0_0" startPos="6.8" endPos="16.8" duration="36" parking="false" />
    </vehicle>
    <vehicle id="microbus_53" type="microbus" depart="43403" departLane="best" departSpeed="random">
        <route edges="50211834#1 10873186#6 10873186#7 10873186#8 10873186#9 10873186#0 28718874#0 10873193#0 10873193#1 10873193#2" />
        <stop lane="50211834#1_0" startPos="6.0" endPos="16.0" duration="42" parking="false" />
        <stop lane="28718874#0_0" startPos="6.7" endPos="16.7" duration="36" parking="false" />
        <stop lane="10873193#1_0" startPos="13.6" endPos="23.6" duration="43" parking="false" />
    </vehicle>
    <vehicle id="microbus_54" type="microbus" depart="43404" departLane="best" departSpeed="random">
        <route edges="690516091#1 10873186#9 10873186#0 10873186#1 10873186#2 10873186#3 10873186#4 10873186#5 10873186#6 305873958#0 305873958#1 305873958#2 305873958#3-AddedOnRampEdge" />
    </vehicle>
    <vehicle id="microbus_55" type="microbus" depart="43411" departLane="best" departSpeed="random">
        <route edges="690516091#0 690516091#1 10873186#9 10873186#0 10873186#1 10873191#0 10873191#1 10873191#2" />
    </vehicle>
    <vehicle id="microbus_56" type="microbus" depart="43417" departLane="best" departSpeed="random">
        <route edges="28718647#1 28718647#2 28718647#3 690516091#1 10873186#9 10873186#0 28718874#0 28718874#1 28718874#2" />
        <stop lane="28718874#0_0" startPos="8.5" endPos="18.5" duration="27" parking="false" />
        <stop lane="28718874#1_0" startPos="12.2" endPos="22.2" duration="60" parking="false" />
    </vehicle>
    <vehicle id="microbus_57" type="microbus" depart="43426" departLane="best" departSpeed="random">
        <route edges="29181613#5 10873186#4 10873186#5 10873186#6 10873186#7 10873186#8 10873186#9 10873186#0 28718874#0 28718874#1" />
        <stop lane="28718874#0_0" startPos="10.1" endPos="20.1" duration="39" parking="false" />
        <stop lane="28718874#1_0" startPos="6.0" endPos="16.0" duration="55" parking="false" />
    </vehicle>
    <vehicle id="microbus_58" type="microbus" depart="43432" departLane="best" departSpeed="random">
        <route edges="-711671304 28718647#3 138136500#0 138136500#1" />
    </vehicle>
    <vehicle id="microbus_59" type="microbus" depart="43436" departLane="best" departSpeed="random">
        <route edges="29181613#2 29181613#3 29181613#4 29181613#5 10873186#4 10873186#5 10873186#6 10873186#7 10873186#8 10873186#9 10873186#0 28718874#0 10873193#0 10873193#1 10873193#2" />
        <stop lane="28718874#0_0" startPos="13.5" endPos="23.5" duration="44" parking="false" />
        <stop lane="10873193#0_0" startPos="9.5" endPos="19.5" duration="13" parking="false" />
        <stop lane="10873193#1_0" startPos="7.9" endPos="17.9" duration="42" parking="false" />
    </vehicle>
    <vehicle id="microbus_60" type="microbus" depart="43444" departLane="best" departSpeed="random">
        <route edges="690516091#1 10873186#9 10873186#0 10873186#1 10873186#2 10873186#3 10873186#4 10873186#5 10873186#6 305873958#0 305873958#1 305873958#2 305873958#3-AddedOnRampEdge" />
    </vehicle>
    <vehicle id="microbus_61" type="microbus" depart="43450" departLane="best" departSpeed="random">
        <route edges="29181613#2 29181613#3 29181613#4 29181613#5" />
    </vehicle>
    <vehicle id="microbus_62" type="microbus" depart="43455" departLane="best" departSpeed="random">
        <route edges="29181613#5 10873186#4 10873186#5 10873186#6 10873186#7 10873186#8 10873186#9 10873186#0 28718874#0 28718874#1" />
        <stop lane="28718874#0_0" startPos="13.8" endPos="23.8" duration="59" parking="false" />
        <stop lane="28718874#1_0" startPos="6.2" endPos="16.2" duration="22" parking="false" />
    </vehicle>
    <vehicle id="microbus_63" type="microbus" depart="43460" departLane="best" departSpeed="random">
        <route edges="690516091#0 690516091#1 10873186#9 10873186#0 10873186#1 10873191#0 10873191#1 10873191#2" />
    </vehicle>
    <vehicle id="microbus_64" type="microbus" depart="43466" departLane="best" departSpeed="random">
        <route edges="29181613#5 10873186#4 10873186#5 10873186#6 10873186#7 10873186#8 10873186#9 10873186#0 10873186#1 10873191#0" />
    </vehicle>
    <vehicle id="microbus_65" type="microbus" depart="43475" departLane="best" departSpeed="random">
        <route edges="28718647#2 28718647#3 690516091#1 10873186#9 10873186#0 10873186#1 10873191#0" />
    </vehicle>
    <vehicle id="microbus_66" type="microbus" depart="43477" departLane="best" departSpeed="random">
        <route edges="50211834#0 50211834#1 10873186#6 305873958#0" />
        <stop lane="50211834#0_0" startPos="8.5" endPos="18.5" duration="12" parking="false" />
        <stop lane="50211834#1_0" startPos="13.8" endPos="23.8" duration="44" parking="false" />
    </vehicle>
    <vehicle id="microbus_67" type="microbus" depart="43484" departLane="best" departSpeed="random">
        <route edges="50211834#0 50211834#1 10873186#6 305873958#0" />
        <stop lane="50211834#0_0" startPos="12.9" endPos="22.9" duration="56" parking="false" />
        <stop lane="50211834#1_0" startPos="14.6" endPos="24.6" duration="41" parking="false" />
    </vehicle>
    <vehicle id="microbus_68" type="microbus" depart="43492" departLane="best" departSpeed="random">
        <route edges="29181613#1 29181613#2 961982432#0 961982432#1" />
        <stop lane="29181613#1_0" startPos="10.3" endPos="20.3" duration="25" parking="false" />
    </vehicle>
    <vehicle id="microbus_69" type="microbus" depart="43495" departLane="best" departSpeed="random">
        <route edges="10873191#2 10873191#3 10873191#4 10873191#5" />
    </vehicle>
    <vehicle id="microbus_70" type="microbus" depart="43504" departLane="best" departSpeed="random">
        <route edges="28718647#1 28718647#2 28718647#3 690516091#1 10873186#9 10873186#0 28718874#0 28718874#1 28718874#2" />
        <stop lane="28718874#0_0" startPos="8.5" endPos="18.5" duration="32" parking="false" />
        <stop lane="28718874#1_0" startPos="9.2" endPos="19.2" duration="28" parking="false" />
    </vehicle>
    <vehicle id="microbus_71" type="microbus" depart="43507" departLane="best" departSpeed="random">
        <route edges="690516091#0 690516091#1 10873186#9 10873186#0 10873186#1 10873191#0 10873191#1 10873191#2" />
    </vehicle>
    <vehicle id="microbus_72" type="microbus" depart="43515" departLane="best" departSpeed="random">
        <route edges="-711671304 28718647#3 138136500#0 138136500#1" />
    </vehicle>
    <vehicle id="microbus_73" type="microbus" depart="43521" departLane="best" departSpeed="random">
        <route edges="29181613#5 10873186#4 192591565#0 192591565#1 192591565#2" />
        <stop lane="192591565#0_0" startPos="7.5" endPos="17.5" duration="57" parking="false" />
        <stop lane="192591565#1_0" startPos="9.1" endPos="19.1" duration="27" parking="false" />
    </vehicle>
    <vehicle id="microbus_74" type="microbus" depart="43525" departLane="best" departSpeed="random">
        <route edges="28718647#2 28718647#3 690516091#1 10873186#9 10873186#0 10873186#1 10873191#0" />
    </vehicle>
    <vehicle id="microbus_75" type="microbus" depart="43531" departLane="best" departSpeed="random">
        <route edges="-711671304 28718647#3 138136500#0 138136500#1" />
    </vehicle>
    <vehicle id="microbus_76" type="microbus" depart="43538" departLane="best" departSpeed="random">
        <route edges="690516091#0 690516091#1 10873186#9 10873186#0 10873186#1 10873191#0 10873191#1 10873191#2" />
    </vehicle>
    <vehicle id="microbus_77" type="microbus" depart="43545" departLane="best" departSpeed="random">
        <route edges="28718647#2 28718647#3 690516091#1 10873186#9 10873186#0 28718874#0 10873193#0 10873193#1" />
        <stop lane="28718874#0_0" startPos="6.4" endPos="16.4" duration="23" parking="false" />
        <stop lane="10873193#0_0" startPos="5.3" endPos="15.3" duration="48" parking="false" />
    </vehicle>
    <vehicle id="microbus_78" type="microbus" depart="43549" departLane="best" departSpeed="random">
        <route edges="29181613#1 29181613#2 961982432#0 961982432#1" />
        <stop lane="29181613#1_0" startPos="14.5" endPos="24.5" duration="52" parking="false" />
    </vehicle>
    <vehicle id="microbus_79" type="microbus" depart="43555" departLane="best" departSpeed="random">
        <route edges="690516091#1 10873186#9 10873186#0 10873186#1 10873186#2 10873186#3 10873186#4 10873186#5 10873186#6 305873958#0 305873958#1 305873958#2 305873958#3-AddedOnRampEdge" />
    </vehicle>
    <vehicle id="microbus_80" type="microbus" depart="43563" departLane="best" departSpeed="random">
        <route edges="690516091#0 690516091#1 10873186#9 10873186#0 10873186#1 10873191#0 10873191#1 10873191#2" />
    </vehicle>
    <vehicle id="microbus_81" type="microbus" depart="43569" departLane="best" departSpeed="random">
        <route edges="29181613#2 29181613#3 29181613#4 29181613#5 10873186#4 10873186#5 10873186#6 10873186#7 10873186#8 10873186#9 10873186#0 28718874#0 10873193#0 10873193#1 10873193#2" />
        <stop lane="28718874#0_0" startPos="14.7" endPos="24.7" duration="52" parking="false" />
        <stop lane="10873193#1_0" startPos="12.2" endPos="22.2" duration="36" parking="false" />
    </vehicle>
    <vehicle id="microbus_82" type="microbus" depart="43572" departLane="best" departSpeed="random">
        <route edges="-711671304 28718647#3 138136500#0 138136500#1" />
    </vehicle>
    <vehicle id="microbus_83" type="microbus" depart="43579" departLane="best" departSpeed="random">
        <route edges="29181613#2 29181613#3 29181613#4 29181613#5 10873186#4 10873186#5 10873186#6 10873186#7 10873186#8 10873186#9 10873186#0 28718874#0 10873193#0 10873193#1 10873193#2" />
        <stop lane="28718874#0_0" startPos="9.8" endPos="19.8" duration="19" parking="false" />
        <stop lane="10873193#1_0" startPos="11.6" endPos="21.6" duration="18" parking="false" />
    </vehicle>
    <vehicle id="microbus_84" type="microbus" depart="43589" departLane="best" departSpeed="random">
        <route edges="29181613#5 10873186#4 10873186#5 10873186#6 10873186#7 10873186#8 10873186#9 10873186#0 10873186#1 10873191#0" />
    </vehicle>
    <vehicle id="microbus_85" type="microbus" depart="43591" departLane="best" departSpeed="random">
        <route edges="29181613#5 10873186#4 192591565#0 192591565#1 192591565#2" />
        <stop lane="192591565#0_0" startPos="6.9" endPos="16.9" duration="13" parking="false" />
        <stop lane="192591565#1_0" startPos="8.6" endPos="18.6" duration="16" parking="false" />
    </vehicle>
    <vehicle id="microbus_86" type="microbus" depart="43599" departLane="best" departSpeed="random">
        <route edges="50211834#1 10873186#6 10873186#7 10873186#8 10873186#9 10873186#0 28718874#0 10873193#0 10873193#1 10873193#2" />
        <stop lane="28718874#0_0" startPos="9.2" endPos="19.2" duration="28" parking="false" />
        <stop lane="10873193#0_0" startPos="6.0" endPos="16.0" duration="44" parking="false" />
    </vehicle>
    <vehicle id="microbus_87" type="microbus" depart="43603" departLane="best" departSpeed="random">
        <route edges="690516091#0 690516091#1 10873186#9 10873186#0 10873186#1 10873191#0 10873191#1 10873191#2" />
    </vehicle>
    <vehicle id="microbus_88" type="microbus" depart="43609" departLane="best" departSpeed="random">
        <route edges="29181613#5 10873186#4 192591565#0 192591565#1 192591565#2" />
        <stop lane="192591565#0_0" startPos="11.2" endPos="21.2" duration="44" parking="false" />
        <stop lane="192591565#1_0" startPos="9.8" endPos="19.8" duration="23" parking="false" />
    </vehicle>