<?xml version='1.0' encoding='utf-8'?>
<routes>
    <vType id="passenger" maxSpeed="13.89" length="4.5" accel="2.6" decel="4.5" sigma="0.5" minGap="2.5" color="255,255,255" />
    <vType id="taxi" maxSpeed="13.89" length="4.5" accel="2.6" decel="4.5" sigma="0.5" minGap="2.5" color="255,200,0" />
    <vType id="microbus" maxSpeed="11.11" length="6.0" accel="2.6" decel="4.5" sigma="0.5" minGap="2.5" color="0,100,255" />
    <vType id="bus" maxSpeed="11.11" length="12.0" accel="2.6" decel="4.5" sigma="0.5" minGap="2.5" color="255,0,0" />
    <vType id="truck" maxSpeed="11.11" length="8.0" accel="2.6" decel="4.5" sigma="0.5" minGap="2.5" color="128,128,128" />
    <vType id="motorcycle" maxSpeed="16.67" length="2.0" accel="2.6" decel="4.5" sigma="0.5" minGap="2.5" color="255,165,0" />
    <vType id="bicycle" maxSpeed="5.56" length="1.8" accel="2.6" decel="4.5" sigma="0.5" minGap="2.5" color="0,200,0" />
    <route id="route_0" edges="29181613#5 10873186#4 10873186#5 10873186#6 10873186#7 10873186#8 10873186#9 10873186#0 10873186#1 10873191#0" />
    <route id="route_1" edges="690516091#0 690516091#1 10873186#9 10873186#0 10873186#1 10873191#0 10873191#1 10873191#2" />
    <route id="route_2" edges="28718647#2 28718647#3 690516091#1 10873186#9 10873186#0 10873186#1 10873191#0" />
    <route id="route_3" edges="-711671304 28718647#3 690516091#1 10873186#9 10873186#0 28718874#0 10873193#0" />
    <route id="route_4" edges="29181613#5 10873186#4 10873186#5 10873186#6 10873186#7 10873186#8 10873186#9 10873186#0 28718874#0 28718874#1" />
    <route id="route_5" edges="10873191#2 10873191#3 10873191#4 10873191#5" />
    <route id="route_6" edges="29181613#1 29181613#2 961982432#0 961982432#1" />
    <route id="route_7" edges="28718647#1 28718647#2 28718647#3 690516091#1 10873186#9 10873186#0 28718874#0 28718874#1 28718874#2" />
    <route id="route_8" edges="29181613#4 29181613#5 10873186#4 192591565#0 192591565#1" />
    <route id="route_9" edges="28718647#1 28718647#2 28718647#3 690516091#1 10873186#9 10873186#0 28718874#0 10873193#0" />
    <route id="route_10" edges="29181613#2 29181613#3 29181613#4 29181613#5" />
    <route id="route_11" edges="50211834#0 50211834#1 10873186#6 305873958#0" />
    <route id="route_12" edges="29181613#5 10873186#4 192591565#0 192591565#1 192591565#2" />
    <route id="route_13" edges="29181613#2 29181613#3 29181613#4 29181613#5 10873186#4 10873186#5 10873186#6 10873186#7 10873186#8 10873186#9 10873186#0 28718874#0 10873193#0 10873193#1 10873193#2" />
    <route id="route_14" edges="28718647#2 28718647#3 690516091#1 10873186#9 10873186#0 28718874#0 10873193#0 10873193#1" />
    <route id="route_15" edges="-711671304 28718647#3 690516091#1 10873186#9 10873186#0 28718874#0 10873193#0 305873957#0" />
    <route id="route_16" edges="50211834#1 10873186#6 10873186#7 10873186#8 10873186#9 10873186#0 28718874#0 10873193#0 10873193#1 10873193#2" />
    <route id="route_17" edges="690516091#1 10873186#9 10873186#0 10873186#1 10873186#2 10873186#3 10873186#4 10873186#5 10873186#6 305873958#0 305873958#1 305873958#2 305873958#3-AddedOnRampEdge" />
    <route id="route_18" edges="29181613#4 29181613#5 10873186#4 10873186#5 10873186#6 10873186#7 10873186#8 10873186#9 10873186#0 10873186#1 10873191#0 10873191#1 10873191#2 10873191#3 10873191#4 10873191#5" />
    <route id="route_19" edges="-711671304 28718647#3 138136500#0 138136500#1" />
    <flow id="flow_0" type="passenger" route="route_0" begin="79200" end="79800" number="4" departLane="best" departSpeed="random" />
    <flow id="flow_1" type="passenger" route="route_1" begin="79200" end="79800" number="4" departLane="best" departSpeed="random" />
    <flow id="flow_2" type="passenger" route="route_2" begin="79200" end="79800" number="4" departLane="best" departSpeed="random" />
    <flow id="flow_3" type="passenger" route="route_3" begin="79200" end="79800" number="4" departLane="best" departSpeed="random" />
    <flow id="flow_4" type="passenger" route="route_4" begin="79200" end="79800" number="4" departLane="best" departSpeed="random" />
    <flow id="flow_5" type="passenger" route="route_5" begin="79200" end="79800" number="4" departLane="best" departSpeed="random" />
    <flow id="flow_6" type="passenger" route="route_6" begin="79200" end="79800" number="4" departLane="best" departSpeed="random" />
    <flow id="flow_7" type="passenger" route="route_7" begin="79200" end="79800" number="4" departLane="best" departSpeed="random" />
    <flow id="flow_8" type="passenger" route="route_8" begin="79200" end="79800" number="4" departLane="best" departSpeed="random" />
    <flow id="flow_9" type="passenger" route="route_9" begin="79200" end="79800" number="4" departLane="best" departSpeed="random" />
    <flow id="flow_10" type="passenger" route="route_10" begin="79200" end="79800" number="4" departLane="best" departSpeed="random" />
    <flow id="flow_11" type="passenger" route="route_11" begin="79200" end="79800" number="4" departLane="best" departSpeed="random" />
    <flow id="flow_12" type="passenger" route="route_12" begin="79200" end="79800" number="4" departLane="best" departSpeed="random" />
    <flow id="flow_13" type="passenger" route="route_13" begin="79200" end="79800" number="4" departLane="best" departSpeed="random" />
    <flow id="flow_14" type="passenger" route="route_14" begin="79200" end="79800" number="4" departLane="best" departSpeed="random" />
    <flow id="flow_15" type="passenger" route="route_15" begin="79200" end="79800" number="4" departLane="best" departSpeed="random" />
    <flow id="flow_16" type="passenger" route="route_16" begin="79200" end="79800" number="4" departLane="best" departSpeed="random" />
    <flow id="flow_17" type="passenger" route="route_17" begin="79200" end="79800" number="4" departLane="best" departSpeed="random" />
    <flow id="flow_18" type="passenger" route="route_18" begin="79200" end="79800" number="4" departLane="best" departSpeed="random" />
    <flow id="flow_19" type="passenger" route="route_19" begin="79200" end="79800" number="4" departLane="best" departSpeed="random" />
    <vehicle id="microbus_20" type="microbus" depart="79203" departLane="best" departSpeed="random">
        <route edges="29181613#2 29181613#3 29181613#4 29181613#5 10873186#4 10873186#5 10873186#6 10873186#7 10873186#8 10873186#9 10873186#0 28718874#0 10873193#0 10873193#1 10873193#2" />
        <stop lane="10873193#0_0" startPos="13.0" endPos="23.0" duration="15" parking="false" />
        <stop lane="10873193#1_0" startPos="6.4" endPos="16.4" duration="38" parking="false" />
    </vehicle>
    <vehicle id="microbus_21" type="microbus" depart="79249" departLane="best" departSpeed="random">
        <route edges="28718647#2 28718647#3 690516091#1 10873186#9 10873186#0 28718874#0 10873193#0 10873193#1" />
        <stop lane="28718874#0_0" startPos="11.6" endPos="21.6" duration="12" parking="false" />
        <stop lane="10873193#0_0" startPos="9.2" endPos="19.2" duration="45" parking="false" />
        <stop lane="10873193#1_0" startPos="12.3" endPos="22.3" duration="55" parking="false" />
    </vehicle>
    <vehicle id="microbus_22" type="microbus" depart="79290" departLane="best" departSpeed="random">
        <route edges="28718647#2 28718647#3 690516091#1 10873186#9 10873186#0 28718874#0 10873193#0 10873193#1" />
        <stop lane="28718874#0_0" startPos="5.6" endPos="15.6" duration="27" parking="false" />
        <stop lane="10873193#1_0" startPos="8.6" endPos="18.6" duration="14" parking="false" />
    </vehicle>
    <vehicle id="microbus_23" type="microbus" depart="79305" departLane="best" departSpeed="random">
        <route edges="29181613#2 29181613#3 29181613#4 29181613#5" />
    </vehicle>
    <vehicle id="microbus_24" type="microbus" depart="79360" departLane="best" departSpeed="random">
        <route edges="690516091#1 10873186#9 10873186#0 10873186#1 10873186#2 10873186#3 10873186#4 10873186#5 10873186#6 305873958#0 305873958#1 305873958#2 305873958#3-AddedOnRampEdge" />
    </vehicle>
    <vehicle id="microbus_25" type="microbus" depart="79379" departLane="best" departSpeed="random">
        <route edges="50211834#0 50211834#1 10873186#6 305873958#0" />
        <stop lane="50211834#0_0" startPos="13.7" endPos="23.7" duration="35" parking="false" />
        <stop lane="50211834#1_0" startPos="5.4" endPos="15.4" duration="29" parking="false" />
    </vehicle>
    <vehicle id="microbus_26" type="microbus" depart="79425" departLane="best" departSpeed="random">
        <route edges="29181613#4 29181613#5 10873186#4 10873186#5 10873186#6 10873186#7 10873186#8 10873186#9 10873186#0 10873186#1 10873191#0 10873191#1 10873191#2 10873191#3 10873191#4 10873191#5" />
    </vehicle>
    <vehicle id="microbus_27" type="microbus" depart="79449" departLane="best" departSpeed="random">
        <route edges="29181613#2 29181613#3 29181613#4 29181613#5 10873186#4 10873186#5 10873186#6 10873186#7 10873186#8 10873186#9 10873186#0 28718874#0 10873193#0 10873193#1 10873193#2" />
        <stop lane="28718874#0_0" startPos="12.4" endPos="22.4" duration="60" parking="false" />
        <stop lane="10873193#0_0" startPos="5.5" endPos="15.5" duration="21" parking="false" />
        <stop lane="10873193#1_0" startPos="8.7" endPos="18.7" duration="50" parking="false" />
    </vehicle>
    <vehicle id="microbus_28" type="microbus" depart="79471" departLane="best" departSpeed="random">
        <route edges="28718647#1 28718647#2 28718647#3 690516091#1 10873186#9 10873186#0 28718874#0 28718874#1 28718874#2" />
        <stop lane="28718874#0_0" startPos="13.1" endPos="23.1" duration="42" parking="false" />
        <stop lane="28718874#1_0" startPos="12.3" endPos="22.3" duration="60" parking="false" />
    </vehicle>
    <vehicle id="microbus_29" type="microbus" depart="79519" departLane="best" departSpeed="random">
        <route edges="29181613#4 29181613#5 10873186#4 192591565#0 192591565#1" />
        <stop lane="192591565#0_0" startPos="9.5" endPos="19.5" duration="56" parking="false" />
        <stop lane="192591565#1_0" startPos="8.4" endPos="18.4" duration="45" parking="false" />
    </vehicle>
    <vehicle id="microbus_30" type="microbus" depart="79532" departLane="best" departSpeed="random">
        <route edges="690516091#0 690516091#1 10873186#9 10873186#0 10873186#1 10873191#0 10873191#1 10873191#2" />
    </vehicle>
    <vehicle id="microbus_31" type="microbus" depart="79591" departLane="best" departSpeed="random">
        <route edges="29181613#5 10873186#4 10873186#5 10873186#6 10873186#7 10873186#8 10873186#9 10873186#0 10873186#1 10873191#0" />
    </vehicle>
    <vehicle id="microbus_32" type="microbus" depart="79617" departLane="best" departSpeed="random">
        <route edges="690516091#1 10873186#9 10873186#0 10873186#1 10873186#2 10873186#3 10873186#4 10873186#5 10873186#6 305873958#0 305873958#1 305873958#2 305873958#3-AddedOnRampEdge" />
    </vehicle>
    <vehicle id="microbus_33" type="microbus" depart="79633" departLane="best" departSpeed="random">
        <route edges="29181613#4 29181613#5 10873186#4 192591565#0 192591565#1" />
        <stop lane="192591565#0_0" startPos="6.3" endPos="16.3" duration="18" parking="false" />
        <stop lane="192591565#1_0" startPos="8.2" endPos="18.2" duration="35" parking="false" />
    </vehicle>
    <vehicle id="microbus_34" type="microbus" depart="79688" departLane="best" departSpeed="random">
        <route edges="29181613#5 10873186#4 10873186#5 10873186#6 10873186#7 10873186#8 10873186#9 10873186#0 28718874#0 28718874#1" />
        <stop lane="28718874#0_0" startPos="6.8" endPos="16.8" duration="45" parking="false" />
        <stop lane="28718874#1_0" startPos="9.5" endPos="19.5" duration="20" parking="false" />
    </vehicle>
    <vehicle id="microbus_35" type="microbus" depart="79699" departLane="best" departSpeed="random">
        <route edges="29181613#2 29181613#3 29181613#4 29181613#5" />
    </vehicle>
    <vehicle id="microbus_36" type="microbus" depart="79728" departLane="best" departSpeed="random">
        <route edges="-711671304 28718647#3 690516091#1 10873186#9 10873186#0 28718874#0 10873193#0" />
        <stop lane="28718874#0_0" startPos="7.0" endPos="17.0" duration="39" parking="false" />
        <stop lane="10873193#0_0" startPos="8.1" endPos="18.1" duration="13" parking="false" />
    </vehicle>
    <vehicle id="microbus_37" type="microbus" depart="79762" departLane="best" departSpeed="random">
        <route edges="29181613#2 29181613#3 29181613#4 29181613#5" />
    </vehicle>
    <flow id="flow_38" type="taxi" route="route_0" begin="79200" end="79800" number="2" departLane="best" departSpeed="random" />
    <flow id="flow_39" type="taxi" route="route_1" begin="79200" end="79800" number="2" departLane="best" departSpeed="random" />
    <flow id="flow_40" type="taxi" route="route_2" begin="79200" end="79800" number="2" departLane="best" departSpeed="random" />
    <flow id="flow_41" type="taxi" route="route_3" begin="79200" end="79800" number="2" departLane="best" departSpeed="random" />
    <flow id="flow_42" type="taxi" route="route_4" begin="79200" end="79800" number="2" departLane="best" departSpeed="random" />
    <flow id="flow_43" type="taxi" route="route_5" begin="79200" end="79800" number="2" departLane="best" departSpeed="random" />
    <flow id="flow_44" type="taxi" route="route_6" begin="79200" end="79800" number="2" departLane="best" departSpeed="random" />
    <flow id="flow_45" type="taxi" route="route_7" begin="79200" end="79800" number="2" departLane="best" departSpeed="random" />
    <flow id="flow_46" type="taxi" route="route_8" begin="79200" end="79800" number="2" departLane="best" departSpeed="random" />
    <flow id="flow_47" type="taxi" route="route_9" begin="79200" end="79800" number="2" departLane="best" departSpeed="random" />
    <flow id="flow_48" type="taxi" route="route_10" begin="79200" end="79800" number="2" departLane="best" departSpeed="random" />
    <flow id="flow_49" type="taxi" route="route_11" begin="79200" end="79800" number="2" departLane="best" departSpeed="random" />
    <flow id="flow_50" type="taxi" route="route_12" begin="79200" end="79800" number="2" departLane="best" departSpeed="random" />
    <flow id="flow_51" type="taxi" route="route_13" begin="79200" end="79800" number="2" departLane="best" departSpeed="random" />
    <flow id="flow_52" type="taxi" route="route_14" begin="79200" end="79800" number="2" departLane="best" departSpeed="random" />
    <flow id="flow_53" type="taxi" route="route_15" begin="79200" end="79800" number="2" departLane="best" departSpeed="random" />
    <flow id="flow_54" type="taxi" route="route_16" begin="79200" end="79800" number="2" departLane="best" departSpeed="random" />
    <flow id="flow_55" type="taxi" route="route_17" begin="79200" end="79800" number="2" departLane="best" departSpeed="random" />
    <flow id="flow_56" type="taxi" route="route_18" begin="79200" end="79800" number="2" departLane="best" departSpeed="random" />
    <flow id="flow_57" type="taxi" route="route_19" begin="79200" end="79800" number="2" departLane="best" departSpeed="random" />
    <vehicle id="bus_58" type="bus" depart="79356" departLane="best" departSpeed="random">
        <route edges="-711671304 28718647#3 690516091#1 10873186#9 10873186#0 28718874#0 10873193#0" />
        <stop busStop="bs_3" duration="41" />
    </vehicle>
    <vehicle id="bus_59" type="bus" depart="79525" departLane="best" departSpeed="random">
        <route edges="29181613#5 10873186#4 10873186#5 10873186#6 10873186#7 10873186#8 10873186#9 10873186#0 28718874#0 28718874#1" />
        <stop busStop="bs_9" duration="22" />
    </vehicle>
    <vehicle id="bus_60" type="bus" depart="79724" departLane="best" departSpeed="random">
        <route edges="-711671304 28718647#3 690516091#1 10873186#9 10873186#0 28718874#0 10873193#0" />
        <stop busStop="bs_3" duration="40" />
    </vehicle>
    <flow id="flow_61" type="truck" route="route_0" begin="79200" end="79800" number="2" departLane="best" departSpeed="random" />
    <flow id="flow_62" type="truck" route="route_1" begin="79200" end="79800" number="2" departLane="best" departSpeed="random" />
    <flow id="flow_63" type="truck" route="route_2" begin="79200" end="79800" number="2" departLane="best" departSpeed="random" />
    <flow id="flow_64" type="truck" route="route_3" begin="79200" end="79800" number="2" departLane="best" departSpeed="random" />
    <flow id="flow_65" type="truck" route="route_4" begin="79200" end="79800" number="2" departLane="best" departSpeed="random" />
    <flow id="flow_66" type="truck" route="route_5" begin="79200" end="79800" number="2" departLane="best" departSpeed="random" />
    <flow id="flow_67" type="truck" route="route_6" begin="79200" end="79800" number="2" departLane="best" departSpeed="random" />
    <flow id="flow_68" type="truck" route="route_7" begin="79200" end="79800" number="2" departLane="best" departSpeed="random" />
    <flow id="flow_69" type="truck" route="route_8" begin="79200" end="79800" number="2" departLane="best" departSpeed="random" />
    <flow id="flow_70" type="truck" route="route_9" begin="79200" end="79800" number="2" departLane="best" departSpeed="random" />
    <flow id="flow_71" type="truck" route="route_10" begin="79200" end="79800" number="2" departLane="best" departSpeed="random" />
    <flow id="flow_72" type="truck" route="route_11" begin="79200" end="79800" number="2" departLane="best" departSpeed="random" />
    <flow id="flow_73" type="truck" route="route_12" begin="79200" end="79800" number="2" departLane="best" departSpeed="random" />
    <flow id="flow_74" type="truck" route="route_13" begin="79200" end="79800" number="2" departLane="best" departSpeed="random" />
    <flow id="flow_75" type="truck" route="route_14" begin="79200" end="79800" number="2" departLane="best" departSpeed="random" />
    <flow id="flow_76" type="truck" route="route_15" begin="79200" end="79800" number="2" departLane="best" departSpeed="random" />
    <flow id="flow_77" type="truck" route="route_16" begin="79200" end="79800" number="2" departLane="best" departSpeed="random" />
    <flow id="flow_78" type="truck" route="route_17" begin="79200" end="79800" number="2" departLane="best" departSpeed="random" />
    <flow id="flow_79" type="truck" route="route_18" begin="79200" end="79800" number="2" departLane="best" departSpeed="random" />
    <flow id="flow_80" type="truck" route="route_19" begin="79200" end="79800" number="2" departLane="best" departSpeed="random" />
    <flow id="flow_81" type="motorcycle" route="route_0" begin="79200" end="79800" number="2" departLane="best" departSpeed="random" />
    <flow id="flow_82" type="motorcycle" route="route_1" begin="79200" end="79800" number="2" departLane="best" departSpeed="random" />
    <flow id="flow_83" type="motorcycle" route="route_2" begin="79200" end="79800" number="2" departLane="best" departSpeed="random" />
    <flow id="flow_84" type="motorcycle" route="route_3" begin="79200" end="79800" number="2" departLane="best" departSpeed="random" />
    <flow id="flow_85" type="motorcycle" route="route_4" begin="79200" end="79800" number="2" departLane="best" departSpeed="random" />
    <flow id="flow_86" type="motorcycle" route="route_5" begin="79200" end="79800" number="2" departLane="best" departSpeed="random" />
    <flow id="flow_87" type="motorcycle" route="route_6" begin="79200" end="79800" number="2" departLane="best" departSpeed="random" />
    <flow id="flow_88" type="motorcycle" route="route_7" begin="79200" end="79800" number="2" departLane="best" departSpeed="random" />
    <flow id="flow_89" type="motorcycle" route="route_8" begin="79200" end="79800" number="2" departLane="best" departSpeed="random" />
    <flow id="flow_90" type="motorcycle" route="route_9" begin="79200" end="79800" number="2" departLane="best" departSpeed="random" />
    <flow id="flow_91" type="motorcycle" route="route_10" begin="79200" end="79800" number="2" departLane="best" departSpeed="random" />
    <flow id="flow_92" type="motorcycle" route="route_11" begin="79200" end="79800" number="2" departLane="best" departSpeed="random" />
    <flow id="flow_93" type="motorcycle" route="route_12" begin="79200" end="79800" number="2" departLane="best" departSpeed="random" />
    <flow id="flow_94" type="motorcycle" route="route_13" begin="79200" end="79800" number="2" departLane="best" departSpeed="random" />
    <flow id="flow_95" type="motorcycle" route="route_14" begin="79200" end="79800" number="2" departLane="best" departSpeed="random" />
    <flow id="flow_96" type="motorcycle" route="route_15" begin="79200" end="79800" number="2" departLane="best" departSpeed="random" />
    <flow id="flow_97" type="motorcycle" route="route_16" begin="79200" end="79800" number="2" departLane="best" departSpeed="random" />
    <flow id="flow_98" type="motorcycle" route="route_17" begin="79200" end="79800" number="2" departLane="best" departSpeed="random" />
    <flow id="flow_99" type="motorcycle" route="route_18" begin="79200" end="79800" number="2" departLane="best" departSpeed="random" />
    <flow id="flow_100" type="motorcycle" route="route_19" begin="79200" end="79800" number="2" departLane="best" departSpeed="random" />
    <flow id="flow_101" type="passenger" route="route_0" begin="79800" end="80400" number="4" departLane="best" departSpeed="random" />
    <flow id="flow_102" type="passenger" route="route_1" begin="79800" end="80400" number="4" departLane="best" departSpeed="random" />
    <flow id="flow_103" type="passenger" route="route_2" begin="79800" end="80400" number="4" departLane="best" departSpeed="random" />
    <flow id="flow_104" type="passenger" route="route_3" begin="79800" end="80400" number="4" departLane="best" departSpeed="random" />
    <flow id="flow_105" type="passenger" route="route_4" begin="79800" end="80400" number="4" departLane="best" departSpeed="random" />
    <flow id="flow_106" type="passenger" route="route_5" begin="79800" end="80400" number="4" departLane="best" departSpeed="random" />
    <flow id="flow_107" type="passenger" route="route_6" begin="79800" end="80400" number="4" departLane="best" departSpeed="random" />
    <flow id="flow_108" type="passenger" route="route_7" begin="79800" end="80400" number="4" departLane="best" departSpeed="random" />
    <flow id="flow_109" type="passenger" route="route_8" begin="79800" end="80400" number="4" departLane="best" departSpeed="random" />
    <flow id="flow_110" type="passenger" route="route_9" begin="79800" end="80400" number="4" departLane="best" departSpeed="random" />
    <flow id="flow_111" type="passenger" route="route_10" begin="79800" end="80400" number="4" departLane="best" departSpeed="random" />
    <flow id="flow_112" type="passenger" route="route_11" begin="79800" end="80400" number="4" departLane="best" departSpeed="random" />
    <flow id="flow_113" type="passenger" route="route_12" begin="79800" end="80400" number="4" departLane="best" departSpeed="random" />
    <flow id="flow_114" type="passenger" route="route_13" begin="79800" end="80400" number="4" departLane="best" departSpeed="random" />
    <flow id="flow_115" type="passenger" route="route_14" begin="79800" end="80400" number="4" departLane="best" departSpeed="random" />
    <flow id="flow_116" type="passenger" route="route_15" begin="79800" end="80400" number="4" departLane="best" departSpeed="random" />
    <flow id="flow_117" type="passenger" route="route_16" begin="79800" end="80400" number="4" departLane="best" departSpeed="random" />
    <flow id="flow_118" type="passenger" route="route_17" begin="79800" end="80400" number="4" departLane="best" departSpeed="random" />
    <flow id="flow_119" type="passenger" route="route_18" begin="79800" end="80400" number="4" departLane="best" departSpeed="random" />
    <flow id="flow_120" type="passenger" route="route_19" begin="79800" end="80400" number="4" departLane="best" departSpeed="random" />
    <vehicle id="microbus_121" type="microbus" depart="79831" departLane="best" departSpeed="random">
        <route edges="29181613#5 10873186#4 10873186#5 10873186#6 10873186#7 10873186#8 10873186#9 10873186#0 10873186#1 10873191#0" />
    </vehicle>
    <vehicle id="microbus_122" type="microbus" depart="79850" departLane="best" departSpeed="random">
        <route edges="-711671304 28718647#3 690516091#1 10873186#9 10873186#0 28718874#0 10873193#0" />
        <stop lane="28718874#0_0" startPos="6.8" endPos="16.8" duration="30" parking="false" />
        <stop lane="10873193#0_0" startPos="9.4" endPos="19.4" duration="51" parking="false" />
    </vehicle>
    <vehicle id="microbus_123" type="microbus" depart="79893" departLane="best" departSpeed="random">
        <route edges="690516091#0 690516091#1 10873186#9 10873186#0 10873186#1 10873191#0 10873191#1 10873191#2" />
    </vehicle>
    <vehicle id="microbus_124" type="microbus" depart="79926" departLane="best" departSpeed="random">
        <route edges="29181613#4 29181613#5 10873186#4 192591565#0 192591565#1" />
        <stop lane="192591565#0_0" startPos="11.7" endPos="21.7" duration="50" parking="false" />
        <stop lane="192591565#1_0" startPos="12.4" endPos="22.4" duration="14" parking="false" />
    </vehicle>
    <vehicle id="microbus_125" type="microbus" depart="79932" departLane="best" departSpeed="random">
        <route edges="28718647#1 28718647#2 28718647#3 690516091#1 10873186#9 10873186#0 28718874#0 10873193#0" />
        <stop lane="28718874#0_0" startPos="11.9" endPos="21.9" duration="47" parking="false" />
        <stop lane="10873193#0_0" startPos="9.7" endPos="19.7" duration="13" parking="false" />
    </vehicle>
    <vehicle id="microbus_126" type="microbus" depart="79971" departLane="best" departSpeed="random">
        <route edges="29181613#5 10873186#4 10873186#5 10873186#6 10873186#7 10873186#8 10873186#9 10873186#0 10873186#1 10873191#0" />
    </vehicle>
    <vehicle id="microbus_127" type="microbus" depart="80001" departLane="best" departSpeed="random">
        <route edges="28718647#1 28718647#2 28718647#3 690516091#1 10873186#9 10873186#0 28718874#0 10873193#0" />
        <stop lane="28718874#0_0" startPos="9.6" endPos="19.6" duration="17" parking="false" />
        <stop lane="10873193#0_0" startPos="7.3" endPos="17.3" duration="18" parking="false" />
    </vehicle>
    <vehicle id="microbus_128" type="microbus" depart="80033" departLane="best" departSpeed="random">
        <route edges="50211834#0 50211834#1 10873186#6 305873958#0" />
        <stop lane="50211834#0_0" startPos="9.1" endPos="19.1" duration="34" parking="false" />
        <stop lane="50211834#1_0" startPos="10.0" endPos="20.0" duration="28" parking="false" />
    </vehicle>
    <vehicle id="microbus_129" type="microbus" depart="80085" departLane="best" departSpeed="random">
        <route edges="29181613#1 29181613#2 961982432#0 961982432#1" />
        <stop lane="29181613#1_0" startPos="12.2" endPos="22.2" duration="59" parking="false" />
    </vehicle>
    <vehicle id="microbus_130" type="microbus" depart="80113" departLane="best" departSpeed="random">
        <route edges="-711671304 28718647#3 690516091#1 10873186#9 10873186#0 28718874#0 10873193#0" />
        <stop lane="28718874#0_0" startPos="9.1" endPos="19.1" duration="41" parking="false" />
        <stop lane="10873193#0_0" startPos="11.3" endPos="21.3" duration="33" parking="false" />
    </vehicle>
    <vehicle id="microbus_131" type="microbus" depart="80130" departLane="best" departSpeed="random">
        <route edges="29181613#2 29181613#3 29181613#4 29181613#5" />
    </vehicle>
    <vehicle id="microbus_132" type="microbus" depart="80195" departLane="best" departSpeed="random">
        <route edges="29181613#1 29181613#2 961982432#0 961982432#1" />
        <stop lane="29181613#1_0" startPos="5.5" endPos="15.5" duration="17" parking="false" />
    </vehicle>
    <vehicle id="microbus_133" type="microbus" depart="80204" departLane="best" departSpeed="random">
        <route edges="28718647#1 28718647#2 28718647#3 690516091#1 10873186#9 10873186#0 28718874#0 28718874#1 28718874#2" />
        <stop lane="28718874#0_0" startPos="12.6" endPos="22.6" duration="40" parking="false" />
        <stop lane="28718874#1_0" startPos="14.1" endPos="24.1" duration="11" parking="false" />
    </vehicle>
    <vehicle id="microbus_134" type="microbus" depart="80249" departLane="best" departSpeed="random">
        <route edges="29181613#4 29181613#5 10873186#4 192591565#0 192591565#1" />
        <stop lane="192591565#0_0" startPos="7.6" endPos="17.6" duration="40" parking="false" />
        <stop lane="192591565#1_0" startPos="8.8" endPos="18.8" duration="14" parking="false" />
    </vehicle>
    <vehicle id="microbus_135" type="microbus" depart="80266" departLane="best" departSpeed="random">
        <route edges="29181613#2 29181613#3 29181613#4 29181613#5" />
    </vehicle>
    <vehicle id="microbus_136" type="microbus" depart="80327" departLane="best" departSpeed="random">
        <route edges="29181613#5 10873186#4 10873186#5 10873186#6 10873186#7 10873186#8 10873186#9 10873186#0 10873186#1 10873191#0" />
    </vehicle>
    <vehicle id="microbus_137" type="microbus" depart="80328" departLane="best" departSpeed="random">
        <route edges="28718647#1 28718647#2 28718647#3 690516091#1 10873186#9 10873186#0 28718874#0 10873193#0" />
        <stop lane="28718874#0_0" startPos="8.0" endPos="18.0" duration="31" parking="false" />
        <stop lane="10873193#0_0" startPos="13.2" endPos="23.2" duration="59" parking="false" />
    </vehicle>
    <vehicle id="microbus_138" type="microbus" depart="80370" departLane="best" departSpeed="random">
        <route edges="-711671304 28718647#3 690516091#1 10873186#9 10873186#0 28718874#0 10873193#0 305873957#0" />