<?xml version="1.0" encoding="UTF-8"?>

<!-- generated on 2026-02-13 16:20:05 by Eclipse SUMO netconvert Version 1.24.0
<netconvertConfiguration xmlns:xsi="http://www.w3.org/2001/XMLSchema-instance" xsi:noNamespaceSchemaLocation="http://sumo.dlr.de/xsd/netconvertConfiguration.xsd">

    <input>
        <osm-files value="map.osm"/>
    </input>

    <output>
        <output-file value="tahrir.net.xml"/>
    </output>

    <projection>
        <proj.utm value="true"/>
    </projection>

    <processing>
        <roundabouts.guess value="true"/>
    </processing>

    <tls_building>
        <tls.guess value="true"/>
    </tls_building>

    <ramp_guessing>
        <ramps.guess value="true"/>
    </ramp_guessing>

    <junctions>
        <junctions.join value="true"/>
    </junctions>

</netconvertConfiguration>
-->

<net version="1.20" junctionCornerDetail="5" limitTurnSpeed="5.50" xmlns:xsi="http://www.w3.org/2001/XMLSchema-instance" xsi:noNamespaceSchemaLocation="http://sumo.dlr.de/xsd/net_file.xsd">

    <location netOffset="-326239.18,-3323500.22" convBoundary="0.00,0.00,4751.16,3414.71" origBoundary="31.197945,30.030224,31.246883,30.061668" projParameter="+proj=utm +zone=36 +ellps=WGS84 +datum=WGS84 +units=m +no_defs"/>

    <type id="highway.footway" priority="1" numLanes="1" speed="2.78" allow="pedestrian" oneway="1" width="2.00"/>
    <type id="highway.pedestrian" priority="1" numLanes="1" speed="2.78" allow="pedestrian" oneway="1" width="2.00"/>
    <type id="highway.primary" priority="12" numLanes="2" speed="27.78" disallow="tram rail_urban rail rail_electric rail_fast ship container cable_car subway aircraft wheelchair scooter drone" oneway="0"/>
    <type id="highway.primary_link" priority="7" numLanes="1" speed="22.22" disallow="tram rail_urban rail rail_electric rail_fast ship container cable_car subway aircraft wheelchair scooter drone" oneway="0"/>
    <type id="highway.residential" priority="3" numLanes="1" speed="13.89" disallow="tram rail_urban rail rail_electric rail_fast ship container cable_car subway aircraft wheelchair scooter drone" oneway="0"/>
    <type id="highway.service" priority="1" numLanes="1" speed="5.56" allow="pedestrian delivery bicycle" oneway="0"/>
    <type id="highway.tertiary" priority="10" numLanes="1" speed="22.22" disallow="tram rail_urban rail rail_electric rail_fast ship container cable_car subway aircraft wheelchair scooter drone" oneway="0"/>
    <type id="highway.trunk" priority="13" numLanes="2" speed="27.78" disallow="pedestrian bicycle tram rail_urban rail rail_electric rail_fast ship container cable_car subway aircraft wheelchair scooter drone" oneway="0"/>
    <type id="railway.subway" priority="18" numLanes="1" speed="27.78" allow="subway" oneway="1"/>

    <edge id=":11434948372_0" function="internal">
        <lane id=":11434948372_0_0" index="0" allow="pedestrian delivery bicycle" speed="5.56" length="3.17" shape="3570.70,1583.07 3568.81,1580.52"/>
    </edge>
    <edge id=":11434948372_1" function="internal">
        <lane id=":11434948372_1_0" index="0" allow="pedestrian delivery bicycle" speed="5.43" length="11.14" shape="3570.70,1583.07 3568.88,1580.35 3569.05,1579.11 3571.19,1579.36 3575.30,1581.10"/>
    </edge>
    <edge id=":11434948372_2" function="internal">
        <lane id=":11434948372_2_0" index="0" allow="pedestrian delivery bicycle" speed="3.65" length="4.67" shape="3570.70,1583.07 3570.56,1581.63 3570.93,1580.82 3571.81,1580.62 3573.18,1581.05"/>
    </edge>
    <edge id=":11434948372_3" function="internal">
        <lane id=":11434948372_3_0" index="0" allow="pedestrian delivery bicycle" speed="5.56" length="4.62" shape="3571.46,1578.73 3572.31,1579.75 3573.10,1580.24 3574.03,1580.57 3575.30,1581.10"/>
    </edge>
    <edge id=":11434948372_4" function="internal">
        <lane id=":11434948372_4_0" index="0" allow="pedestrian delivery bicycle" speed="5.56" length="2.89" shape="3571.46,1578.73 3573.18,1581.05"/>
    </edge>
    <edge id=":11434948372_5" function="internal">
        <lane id=":11434948372_5_0" index="0" allow="pedestrian delivery bicycle" speed="3.65" length="4.67" shape="3571.46,1578.73 3571.47,1580.17 3571.03,1580.95 3570.15,1581.07 3568.81,1580.52"/>
    </edge>
    <edge id=":11434948372_6" function="internal">
        <lane id=":11434948372_6_0" index="0" allow="pedestrian delivery bicycle" speed="5.56" length="5.01" shape="3570.31,1585.24 3570.04,1583.77 3569.87,1582.74 3569.55,1581.78 3568.81,1580.52"/>
    </edge>
    <edge id=":11434948372_7" function="internal">
        <lane id=":11434948372_7_0" index="0" allow="pedestrian delivery bicycle" speed="5.56" length="9.70" shape="3570.31,1585.24 3569.98,1582.20 3570.70,1580.50 3572.47,1580.13 3575.30,1581.10"/>
    </edge>
    <edge id=":11434948372_8" function="internal">
        <lane id=":11434948372_8_0" index="0" allow="pedestrian delivery bicycle" speed="5.40" length="10.92" shape="3570.31,1585.24 3569.54,1580.90 3569.76,1578.76 3570.98,1578.81 3573.18,1581.05"/>
    </edge>
    <edge id=":11434948383_0" function="internal">
        <lane id=":11434948383_0_0" index="0" allow="pedestrian delivery bicycle" speed="5.56" length="4.55" shape="3584.86,1600.58 3583.97,1599.59 3583.23,1599.05 3582.36,1598.68 3581.09,1598.20"/>
    </edge>
    <edge id=":11434948383_1" function="internal">
        <lane id=":11434948383_1_0" index="0" allow="pedestrian delivery bicycle" speed="5.56" length="2.48" shape="3584.86,1600.58 3583.30,1598.65"/>
    </edge>
    <edge id=":11434948383_2" function="internal">
        <lane id=":11434948383_2_0" index="0" allow="pedestrian delivery bicycle" speed="3.65" length="4.67" shape="3584.86,1600.58 3584.73,1599.14 3585.10,1598.33 3585.97,1598.13 3587.35,1598.56"/>
    </edge>
    <edge id=":11434948383_3" function="internal">
        <lane id=":11434948383_3_0" index="0" allow="pedestrian delivery bicycle" speed="5.56" length="4.44" shape="3585.95,1594.44 3586.14,1595.75 3586.28,1596.67 3586.61,1597.51 3587.35,1598.56"/>
    </edge>
    <edge id=":11434948383_4" function="internal">
        <lane id=":11434948383_4_0" index="0" allow="pedestrian delivery bicycle" speed="5.44" length="8.51" shape="3585.95,1594.44 3586.05,1596.97 3585.27,1598.44 3583.62,1598.85 3581.09,1598.20"/>
    </edge>
    <edge id=":11434948383_5" function="internal">
        <lane id=":11434948383_5_0" index="0" allow="pedestrian delivery bicycle" speed="5.12" length="9.42" shape="3585.95,1594.44 3586.41,1598.29 3586.13,1600.27 3585.09,1600.39 3583.30,1598.65"/>
    </edge>
    <edge id=":11434948383_6" function="internal">
        <lane id=":11434948383_6_0" index="0" allow="pedestrian delivery bicycle" speed="5.56" length="2.48" shape="3585.79,1596.63 3587.35,1598.56"/>
    </edge>
    <edge id=":11434948383_7" function="internal">
        <lane id=":11434948383_7_0" index="0" allow="pedestrian delivery bicycle" speed="5.06" length="9.12" shape="3585.79,1596.63 3587.03,1598.63 3586.66,1599.56 3584.68,1599.41 3581.09,1598.20"/>
    </edge>
    <edge id=":11434948383_8" function="internal">
        <lane id=":11434948383_8_0" index="0" allow="pedestrian delivery bicycle" speed="3.65" length="4.67" shape="3585.79,1596.63 3585.92,1598.07 3585.55,1598.88 3584.68,1599.08 3583.30,1598.65"/>
    </edge>
    <edge id=":11449411118_0" function="internal">
        <lane id=":11449411118_0_0" index="0" disallow="tram rail_urban rail rail_electric rail_fast ship container cable_car subway aircraft wheelchair scooter drone" speed="27.78" length="5.26" shape="3615.76,1602.80 3616.69,1597.62"/>
        <lane id=":11449411118_0_1" index="1" disallow="tram rail_urban rail rail_electric rail_fast ship container cable_car subway aircraft wheelchair scooter drone" speed="27.78" length="5.26" shape="3618.91,1603.36 3619.84,1598.18"/>
    </edge>
    <edge id=":13060713926_0" function="internal">
        <lane id=":13060713926_0_0" index="0" disallow="tram rail_urban rail rail_electric rail_fast ship container cable_car subway aircraft wheelchair scooter drone" speed="22.22" length="0.10" shape="3929.54,1856.20 3929.54,1856.20"/>
    </edge>
    <edge id=":2031414890_0" function="internal">
        <lane id=":2031414890_0_0" index="0" disallow="tram rail_urban rail rail_electric rail_fast ship container cable_car subway aircraft wheelchair scooter drone" speed="27.78" length="5.44" shape="3608.60,1531.42 3607.12,1530.94 3606.09,1530.67 3605.04,1530.45 3603.52,1530.13"/>
        <lane id=":2031414890_0_1" index="1" disallow="tram rail_urban rail rail_electric rail_fast ship container cable_car subway aircraft wheelchair scooter drone" speed="27.78" length="5.44" shape="3609.64,1528.40 3608.05,1527.88 3606.95,1527.58 3605.83,1527.35 3604.20,1527.00"/>
    </edge>
    <edge id=":2031414899_0" function="internal">
        <lane id=":2031414899_0_0" index="0" disallow="tram rail_urban rail rail_electric rail_fast ship container cable_car subway aircraft wheelchair scooter drone" speed="27.78" length="0.33" shape="3624.30,1673.82 3624.18,1674.01"/>
        <lane id=":2031414899_0_1" index="1" disallow="tram rail_urban rail rail_electric rail_fast ship container cable_car subway aircraft wheelchair scooter drone" speed="27.78" length="0.33" shape="3621.64,1672.04 3621.48,1672.29"/>
        <lane id=":2031414899_0_2" index="2" disallow="tram rail_urban rail rail_electric rail_fast ship container cable_car subway aircraft wheelchair scooter drone" speed="27.78" length="0.33" shape="3618.98,1670.26 3618.78,1670.57"/>
        <lane id=":2031414899_0_3" index="3" disallow="tram rail_urban rail rail_electric rail_fast ship container cable_car subway aircraft wheelchair scooter drone" speed="27.78" length="0.33" shape="3616.32,1668.48 3616.08,1668.85"/>
    </edge>
    <edge id=":2031414903_0" function="internal">
        <lane id=":2031414903_0_0" index="0" disallow="tram rail_urban rail rail_electric rail_fast ship container cable_car subway aircraft wheelchair scooter drone" speed="7.80" length="8.21" shape="3616.89,1502.59 3619.46,1502.19 3621.50,1501.48 3622.99,1500.45 3623.94,1499.11"/>
        <lane id=":2031414903_0_1" index="1" disallow="tram rail_urban rail rail_electric rail_fast ship container cable_car subway aircraft wheelchair scooter drone" speed="9.18" length="11.61" shape="3617.16,1505.78 3620.60,1505.20 3623.36,1504.12 3625.45,1502.53 3626.85,1500.43"/>
    </edge>
    <edge id=":2031414903_2" function="internal">
        <lane id=":2031414903_2_0" index="0" disallow="tram rail_urban rail rail_electric rail_fast ship container cable_car subway aircraft wheelchair scooter drone" speed="27.78" length="10.86" shape="3620.71,1509.80 3621.38,1506.54 3621.89,1504.31 3622.62,1502.16 3623.94,1499.11"/>
        <lane id=":2031414903_2_1" index="1" disallow="tram rail_urban rail rail_electric rail_fast ship container cable_car subway aircraft wheelchair scooter drone" speed="27.78" length="10.86" shape="3623.84,1510.46 3624.46,1507.40 3624.94,1505.31 3625.62,1503.29 3626.85,1500.43"/>
    </edge>
    <edge id=":271064234_0" function="internal">
        <lane id=":271064234_0_0" index="0" disallow="tram rail_urban rail rail_electric rail_fast ship container cable_car subway aircraft wheelchair scooter drone" speed="22.22" length="0.29" shape="3818.30,1656.83 3818.45,1657.08"/>
    </edge>
    <edge id=":305873958#3-AddedOnRampNode_0" function="internal">
        <lane id=":305873958#3-AddedOnRampNode_0_0" index="0" disallow="tram rail_urban rail rail_electric rail_fast ship container cable_car subway aircraft wheelchair scooter drone" speed="22.22" length="8.00" shape="3481.33,1342.41 3474.98,1337.56"/>
    </edge>
    <edge id=":3105658889_0" function="internal">
        <lane id=":3105658889_0_0" index="0" disallow="tram rail_urban rail rail_electric rail_fast ship container cable_car subway aircraft wheelchair scooter drone" speed="14.14" length="0.97" shape="3692.76,1485.26 3693.11,1485.50 3693.34,1485.69 3693.55,1485.91 3693.82,1486.24"/>
        <lane id=":3105658889_0_1" index="1" disallow="tram rail_urban rail rail_electric rail_fast ship container cable_car subway aircraft wheelchair scooter drone" speed="27.78" length="0.97" shape="3690.95,1487.90 3691.07,1487.98 3691.15,1488.04 3691.22,1488.12 3691.31,1488.23"/>
    </edge>
    <edge id=":3105658890_0" function="internal">
        <lane id=":3105658890_0_0" index="0" disallow="tram rail_urban rail rail_electric rail_fast ship container cable_car subway aircraft wheelchair scooter drone" speed="27.78" length="0.60" shape="3704.67,1502.95 3704.78,1503.20 3704.84,1503.37 3704.90,1503.54 3704.96,1503.80"/>
        <lane id=":3105658890_0_1" index="1" disallow="tram rail_urban rail rail_electric rail_fast ship container cable_car subway aircraft wheelchair scooter drone" speed="27.78" length="0.60" shape="3701.75,1504.27 3701.79,1504.35 3701.81,1504.41 3701.83,1504.47 3701.85,1504.56"/>
    </edge>
    <edge id=":3105658900_0" function="internal">
        <lane id=":3105658900_0_0" index="0" disallow="tram rail_urban rail rail_electric rail_fast ship container cable_car subway aircraft wheelchair scooter drone" speed="22.22" length="10.84" shape="3738.74,1529.14 3744.92,1538.05"/>
    </edge>
    <edge id=":3105658900_1" function="internal">
        <lane id=":3105658900_1_0" index="0" disallow="pedestrian tram rail_urban rail rail_electric rail_fast ship container cable_car subway aircraft wheelchair scooter drone" speed="6.32" length="8.75" shape="3738.74,1529.14 3739.77,1531.24 3739.81,1533.17 3738.88,1534.93 3736.97,1536.52"/>
    </edge>
    <edge id=":3105658905_0" function="internal">
        <lane id=":3105658905_0_0" index="0" disallow="pedestrian tram rail_urban rail rail_electric rail_fast ship container cable_car subway aircraft wheelchair scooter drone" speed="16.19" length="6.55" shape="3687.53,1588.55 3686.91,1590.40 3686.45,1591.67 3685.79,1592.82 3684.55,1594.29"/>
    </edge>
    <edge id=":3105658905_1" function="internal">
        <lane id=":3105658905_1_0" index="0" disallow="tram rail_urban rail rail_electric rail_fast ship container cable_car subway aircraft wheelchair scooter drone" speed="12.34" length="4.43" shape="3684.71,1587.71 3684.25,1589.16 3683.83,1590.13 3683.21,1590.99 3682.20,1592.12"/>
        <lane id=":3105658905_1_1" index="1" disallow="tram rail_urban rail rail_electric rail_fast ship container cable_car subway aircraft wheelchair scooter drone" speed="10.51" length="4.43" shape="3681.64,1586.79 3681.32,1587.83 3681.01,1588.53 3680.57,1589.14 3679.84,1589.96"/>
    </edge>
    <edge id=":315743335_0" function="internal">
        <lane id=":315743335_0_0" index="0" disallow="tram rail_urban rail rail_electric rail_fast ship container cable_car subway aircraft wheelchair scooter drone" speed="22.22" length="0.28" shape="3848.11,1541.99 3848.39,1542.03"/>
    </edge>
    <edge id=":315744796_0" function="internal">
        <lane id=":315744796_0_0" index="0" disallow="pedestrian bicycle tram rail_urban rail rail_electric rail_fast ship container cable_car subway aircraft wheelchair scooter drone" speed="6.96" length="9.22" shape="3710.49,1430.71 3708.32,1431.52 3706.81,1432.94 3705.96,1434.97 3705.76,1437.60"/>
    </edge>
    <edge id=":315744796_1" function="internal">
        <lane id=":315744796_1_0" index="0" disallow="tram rail_urban rail rail_electric rail_fast ship container cable_car subway aircraft wheelchair scooter drone" speed="22.22" length="13.67" shape="3710.49,1430.71 3697.13,1433.59"/>
    </edge>
    <edge id=":315744796_2" function="internal">
        <lane id=":315744796_2_0" index="0" disallow="pedestrian bicycle tram rail_urban rail rail_electric rail_fast ship container cable_car subway aircraft wheelchair scooter drone" speed="27.78" length="10.81" shape="3704.75,1426.68 3705.20,1429.90 3705.46,1432.12 3705.61,1434.34 3705.76,1437.60"/>
        <lane id=":315744796_2_1" index="1" disallow="pedestrian bicycle tram rail_urban rail rail_electric rail_fast ship container cable_car subway aircraft wheelchair scooter drone" speed="27.78" length="10.81" shape="3701.58,1427.14 3702.02,1430.27 3702.27,1432.42 3702.42,1434.58 3702.56,1437.74"/>
    </edge>
    <edge id=":315744796_4" function="internal">
        <lane id=":315744796_4_0" index="0" disallow="pedestrian bicycle tram rail_urban rail rail_electric rail_fast ship container cable_car subway aircraft wheelchair scooter drone" speed="6.61" length="8.79" shape="3701.58,1427.14 3701.59,1429.52 3700.85,1431.38 3699.36,1432.74 3697.13,1433.59"/>
    </edge>
    <edge id=":315745547_0" function="internal">
        <lane id=":315745547_0_0" index="0" disallow="tram rail_urban rail rail_electric rail_fast ship container cable_car subway aircraft wheelchair scooter drone" speed="22.22" length="0.30" shape="4209.33,1326.68 4209.04,1326.75"/>
    </edge>
    <edge id=":3693932233_0" function="internal">
        <lane id=":3693932233_0_0" index="0" disallow="tram rail_urban rail rail_electric rail_fast ship container cable_car subway aircraft wheelchair scooter drone" speed="22.19" length="5.52" shape="3597.07,1448.27 3596.20,1446.89 3595.52,1445.99 3594.72,1445.20 3593.47,1444.14"/>
    </edge>
    <edge id=":3693932235_0" function="internal">
        <lane id=":3693932235_0_0" index="0" disallow="tram rail_urban rail rail_electric rail_fast ship container cable_car subway aircraft wheelchair scooter drone" speed="22.22" length="5.06" shape="3607.73,1465.66 3605.10,1461.33"/>
    </edge>
    <edge id=":3693932241_0" function="internal">
        <lane id=":3693932241_0_0" index="0" disallow="tram rail_urban rail rail_electric rail_fast ship container cable_car subway aircraft wheelchair scooter drone" speed="22.22" length="7.19" shape="3733.79,1523.84 3735.77,1524.60 3737.19,1524.95 3738.65,1525.13 3740.77,1525.41"/>
    </edge>
    <edge id=":3693932241_1" function="internal">
        <lane id=":3693932241_1_0" index="0" disallow="tram rail_urban rail rail_electric rail_fast ship container cable_car subway aircraft wheelchair scooter drone" speed="11.73" length="7.24" shape="3733.79,1523.84 3735.64,1524.82 3736.67,1525.84 3737.48,1527.14 3738.63,1528.97"/>
    </edge>
    <edge id=":4951983598_0" function="internal">
        <lane id=":4951983598_0_0" index="0" allow="pedestrian delivery bicycle" speed="6.10" length="15.81" shape="3590.29,1649.34 3589.10,1654.96 3589.26,1657.00 3590.77,1655.46 3593.64,1650.34"/>
    </edge>
    <edge id=":4951983598_1" function="internal">
        <lane id=":4951983598_1_0" index="0" allow="pedestrian delivery bicycle" speed="3.67" length="4.76" shape="3590.29,1649.34 3589.41,1650.52 3588.58,1650.88 3587.79,1650.43 3587.04,1649.17"/>
    </edge>
    <edge id=":4951983598_2" function="internal">
        <lane id=":4951983598_2_0" index="0" allow="pedestrian delivery bicycle" speed="16.67" length="25.72" shape="3584.17,1674.61 3586.03,1667.41 3586.55,1660.23 3586.60,1653.89 3587.04,1649.17"/>
    </edge>
    <edge id=":4951983598_3" function="internal">
        <lane id=":4951983598_3_0" index="0" disallow="tram rail_urban rail rail_electric rail_fast ship container cable_car subway aircraft wheelchair scooter drone" speed="27.78" length="25.59" shape="3584.17,1674.61 3586.84,1668.77 3589.50,1664.10 3592.55,1659.01 3596.42,1651.93"/>
        <lane id=":4951983598_3_1" index="1" disallow="tram rail_urban rail rail_electric rail_fast ship container cable_car subway aircraft wheelchair scooter drone" speed="27.78" length="25.59" shape="3587.13,1675.81 3589.79,1670.01 3592.41,1665.42 3595.41,1660.45 3599.21,1653.51"/>
    </edge>
    <edge id=":4951983609_0" function="internal">
        <lane id=":4951983609_0_0" index="0" allow="pedestrian delivery bicycle" speed="3.65" length="4.67" shape="3505.28,1560.06 3504.12,1559.20 3503.75,1558.39 3504.19,1557.61 3505.42,1556.86"/>
    </edge>
    <edge id=":4951983616_0" function="internal">
        <lane id=":4951983616_0_0" index="0" disallow="tram rail_urban rail rail_electric rail_fast ship container cable_car subway aircraft wheelchair scooter drone" speed="27.78" length="4.70" shape="3654.96,1630.04 3652.15,1633.65"/>
        <lane id=":4951983616_0_1" index="1" disallow="tram rail_urban rail rail_electric rail_fast ship container cable_car subway aircraft wheelchair scooter drone" speed="27.78" length="4.70" shape="3652.43,1628.08 3649.54,1631.79"/>
        <lane id=":4951983616_0_2" index="2" disallow="tram rail_urban rail rail_electric rail_fast ship container cable_car subway aircraft wheelchair scooter drone" speed="27.78" length="4.70" shape="3649.91,1626.11 3646.94,1629.93"/>
    </edge>
    <edge id=":4951983616_3" function="internal">
        <lane id=":4951983616_3_0" index="0" disallow="tram rail_urban rail rail_electric rail_fast ship container cable_car subway aircraft wheelchair scooter drone" speed="12.40" length="5.13" shape="3646.57,1623.54 3646.25,1625.01 3645.85,1625.97 3645.25,1626.84 3644.34,1628.07"/>
    </edge>
    <edge id=":4979154081_0" function="internal">
        <lane id=":4979154081_0_0" index="0" allow="subway" speed="27.78" length="0.23" shape="3658.25,1461.56 3658.13,1461.76"/>
    </edge>
    <edge id=":4979154084_0" function="internal">
        <lane id=":4979154084_0_0" index="0" allow="subway" speed="27.78" length="0.25" shape="3657.77,1464.09 3657.53,1464.06"/>
    </edge>
    <edge id=":6288771431_0" function="internal">
        <lane id=":6288771431_0_0" index="0" disallow="tram rail_urban rail rail_electric rail_fast ship container cable_car subway aircraft wheelchair scooter drone" speed="27.78" length="0.84" shape="3610.65,1698.11 3610.62,1698.17 3610.61,1698.21 3610.59,1698.25 3610.57,1698.30"/>
        <lane id=":6288771431_0_1" index="1" disallow="tram rail_urban rail rail_electric rail_fast ship container cable_car subway aircraft wheelchair scooter drone" speed="27.78" length="0.84" shape="3607.84,1696.59 3607.75,1696.76 3607.69,1696.87 3607.64,1696.99 3607.58,1697.16"/>
        <lane id=":6288771431_0_2" index="2" disallow="tram rail_urban rail rail_electric rail_fast ship container cable_car subway aircraft wheelchair scooter drone" speed="27.78" length="0.84" shape="3605.02,1695.07 3604.88,1695.34 3604.78,1695.53 3604.70,1695.73 3604.59,1696.02"/>
        <lane id=":6288771431_0_3" index="3" disallow="tram rail_urban rail rail_electric rail_fast ship container cable_car subway aircraft wheelchair scooter drone" speed="27.78" length="0.84" shape="3602.21,1693.55 3602.01,1693.93 3601.87,1694.19 3601.76,1694.47 3601.60,1694.87"/>
    </edge>
    <edge id=":6288771434_0" function="internal">
        <lane id=":6288771434_0_0" index="0" disallow="tram rail_urban rail rail_electric rail_fast ship container cable_car subway aircraft wheelchair scooter drone" speed="27.78" length="0.10" shape="3620.97,1573.82 3620.95,1573.91"/>
        <lane id=":6288771434_0_1" index="1" disallow="tram rail_urban rail rail_electric rail_fast ship container cable_car subway aircraft wheelchair scooter drone" speed="27.78" length="0.10" shape="3624.11,1574.38 3624.13,1574.29"/>
    </edge>
    <edge id=":6288771435_0" function="internal">
        <lane id=":6288771435_0_0" index="0" disallow="tram rail_urban rail rail_electric rail_fast ship container cable_car subway aircraft wheelchair scooter drone" speed="9.99" length="8.62" shape="3624.73,1537.73 3623.31,1535.86 3621.74,1535.19 3619.79,1534.95 3617.26,1534.38"/>
        <lane id=":6288771435_0_1" index="1" disallow="tram rail_urban rail rail_electric rail_fast ship container cable_car subway aircraft wheelchair scooter drone" speed="10.44" length="9.46" shape="3624.73,1537.73 3623.44,1535.25 3622.33,1533.58 3620.81,1532.40 3618.29,1531.35"/>
    </edge>
    <edge id=":6288771435_2" function="internal">
        <lane id=":6288771435_2_0" index="0" disallow="tram rail_urban rail rail_electric rail_fast ship container cable_car subway aircraft wheelchair scooter drone" speed="27.78" length="9.74" shape="3624.73,1537.73 3623.44,1535.07 3622.75,1533.16 3622.20,1531.19 3621.35,1528.34"/>
        <lane id=":6288771435_2_1" index="1" disallow="tram rail_urban rail rail_electric rail_fast ship container cable_car subway aircraft wheelchair scooter drone" speed="27.78" length="9.74" shape="3627.57,1536.25 3626.35,1533.72 3625.70,1531.91 3625.19,1530.05 3624.39,1527.35"/>
    </edge>
    <edge id=":6288771436_0" function="internal">
        <lane id=":6288771436_0_0" index="0" disallow="tram rail_urban rail rail_electric rail_fast ship container cable_car subway aircraft wheelchair scooter drone" speed="27.78" length="11.73" shape="3610.40,1614.11 3612.08,1610.92 3613.53,1608.86 3614.74,1606.71 3615.67,1603.31"/>
        <lane id=":6288771436_0_1" index="1" disallow="tram rail_urban rail rail_electric rail_fast ship container cable_car subway aircraft wheelchair scooter drone" speed="27.78" length="11.73" shape="3613.34,1615.37 3614.95,1612.42 3616.40,1610.53 3617.63,1608.58 3618.55,1605.42"/>
    </edge>
    <edge id=":6288771436_2" function="internal">
        <lane id=":6288771436_2_0" index="0" disallow="tram rail_urban rail rail_electric rail_fast ship container cable_car subway aircraft wheelchair scooter drone" speed="16.72" length="10.56" shape="3616.29,1616.63 3617.49,1613.71 3618.45,1611.69 3619.73,1609.97 3621.96,1607.94"/>
    </edge>
    <edge id=":6288771447_0" function="internal">
        <lane id=":6288771447_0_0" index="0" disallow="tram rail_urban rail rail_electric rail_fast ship container cable_car subway aircraft wheelchair scooter drone" speed="27.78" length="0.25" shape="3554.94,1745.58 3555.05,1745.22"/>
        <lane id=":6288771447_0_1" index="1" disallow="tram rail_urban rail rail_electric rail_fast ship container cable_car subway aircraft wheelchair scooter drone" speed="27.78" length="0.25" shape="3558.01,1746.46 3558.05,1746.34"/>
    </edge>
    <edge id=":6288850209_0" function="internal">
        <lane id=":6288850209_0_0" index="0" disallow="tram rail_urban rail rail_electric rail_fast ship container cable_car subway aircraft wheelchair scooter drone" speed="27.78" length="4.99" shape="3589.03,1526.97 3584.14,1525.90"/>
        <lane id=":6288850209_0_1" index="1" disallow="tram rail_urban rail rail_electric rail_fast ship container cable_car subway aircraft wheelchair scooter drone" speed="27.78" length="4.99" shape="3589.71,1523.85 3584.84,1522.78"/>
    </edge>
    <edge id=":6288850215_0" function="internal">
        <lane id=":6288850215_0_0" index="0" disallow="tram rail_urban rail rail_electric rail_fast ship container cable_car subway aircraft wheelchair scooter drone" speed="22.22" length="5.74" shape="3606.25,1438.33 3601.25,1435.51"/>
    </edge>
    <edge id=":6288850217_0" function="internal">
        <lane id=":6288850217_0_0" index="0" disallow="tram rail_urban rail rail_electric rail_fast ship container cable_car subway aircraft wheelchair scooter drone" speed="22.22" length="3.41" shape="3552.21,1409.76 3549.64,1407.53"/>
    </edge>
    <edge id=":6288850217_1" function="internal">
        <lane id=":6288850217_1_0" index="0" disallow="tram rail_urban rail rail_electric rail_fast ship container cable_car subway aircraft wheelchair scooter drone" speed="22.22" length="3.30" shape="3554.42,1407.11 3553.58,1406.60 3553.03,1406.22 3552.51,1405.80 3551.78,1405.15"/>
    </edge>
    <edge id=":6288850219_0" function="internal">
        <lane id=":6288850219_0_0" index="0" disallow="tram rail_urban rail rail_electric rail_fast ship container cable_car subway aircraft wheelchair scooter drone" speed="7.78" length="7.18" shape="3624.12,1498.70 3624.63,1497.04 3624.69,1495.35 3624.29,1493.61 3623.44,1491.83"/>
    </edge>
    <edge id=":6288850219_1" function="internal">
        <lane id=":6288850219_1_0" index="0" disallow="tram rail_urban rail rail_electric rail_fast ship container cable_car subway aircraft wheelchair scooter drone" speed="27.78" length="7.51" shape="3624.12,1498.70 3625.14,1496.60 3625.98,1495.24 3626.97,1493.96 3628.44,1492.13"/>
        <lane id=":6288850219_1_1" index="1" disallow="tram rail_urban rail rail_electric rail_fast ship container cable_car subway aircraft wheelchair scooter drone" speed="27.78" length="7.51" shape="3627.04,1500.02 3627.96,1498.12 3628.73,1496.89 3629.63,1495.75 3630.96,1494.10"/>
    </edge>
    <edge id=":6289030863_0" function="internal">
        <lane id=":6289030863_0_0" index="0" disallow="tram rail_urban rail rail_electric rail_fast ship container cable_car subway aircraft wheelchair scooter drone" speed="22.22" length="9.41" shape="3764.03,1420.39 3754.75,1421.97"/>
    </edge>
    <edge id=":6289030863_1" function="internal">
        <lane id=":6289030863_1_0" index="0" allow="pedestrian delivery bicycle" speed="6.27" length="7.87" shape="3764.03,1420.39 3761.31,1420.65 3759.25,1420.39 3757.87,1419.61 3757.16,1418.31"/>
    </edge>
    <edge id=":6289030863_2" function="internal">
        <lane id=":6289030863_2_0" index="0" allow="pedestrian delivery bicycle" speed="6.01" length="7.95" shape="3760.27,1417.56 3760.23,1419.08 3759.29,1420.33 3757.47,1421.29 3754.75,1421.97"/>
    </edge>
    <edge id=":6289030863_3" function="internal">
        <lane id=":6289030863_3_0" index="0" allow="pedestrian delivery bicycle" speed="3.65" length="4.67" shape="3760.27,1417.56 3759.78,1418.91 3759.09,1419.49 3758.22,1419.29 3757.16,1418.31"/>
    </edge>
    <edge id=":638291398_0" function="internal">
        <lane id=":638291398_0_0" index="0" disallow="tram rail_urban rail rail_electric rail_fast ship container cable_car subway aircraft wheelchair scooter drone" speed="22.22" length="0.25" shape="3416.33,1297.43 3416.12,1297.28"/>
    </edge>
    <edge id=":6690925727_0" function="internal">