<?xml version="1.0" encoding="UTF-8"?>

<!-- generated on 2026-02-26 15:59:15 by Eclipse SUMO netedit Version 1.24.0
<neteditConfiguration xmlns:xsi="http://www.w3.org/2001/XMLSchema-instance" xsi:noNamespaceSchemaLocation="http://sumo.dlr.de/xsd/neteditConfiguration.xsd">

    <input>
        <sumo-net-file value="tahrirupdated.net.xml"/>
    </input>

    <output>
        <output-file value="tahrirupdated.net.xml"/>
    </output>

    <processing>
        <geometry.min-radius.fix.railways value="false"/>
        <geometry.avoid-overlap value="false"/>
        <geometry.max-grade.fix value="false"/>
        <offset.disable-normalization value="true"/>
        <lefthand value="0"/>
    </processing>

    <junctions>
        <no-turnarounds value="true"/>
        <junctions.corner-detail value="5"/>
        <junctions.limit-turn-speed value="5.50"/>
        <rectangular-lane-cut value="0"/>
    </junctions>

    <pedestrian>
        <walkingareas value="0"/>
    </pedestrian>

</neteditConfiguration>
-->

<net version="1.20" junctionCornerDetail="5" limitTurnSpeed="5.50" avoidOverlap="0" xmlns:xsi="http://www.w3.org/2001/XMLSchema-instance" xsi:noNamespaceSchemaLocation="http://sumo.dlr.de/xsd/net_file.xsd">

    <location netOffset="-326239.18,-3323500.22" convBoundary="126.94,0.00,4751.16,3414.71" origBoundary="31.197945,30.030224,31.246883,30.061668" projParameter="+proj=utm +zone=36 +ellps=WGS84 +datum=WGS84 +units=m +no_defs"/>

    <type id="highway.footway" priority="1" numLanes="1" speed="2.78" allow="pedestrian" oneway="1" width="2.00"/>
    <type id="highway.pedestrian" priority="1" numLanes="1" speed="2.78" allow="pedestrian" oneway="1" width="2.00"/>
    <type id="highway.primary" priority="12" numLanes="2" speed="27.78" disallow="tram rail_urban rail rail_electric rail_fast ship container cable_car subway aircraft wheelchair scooter drone" oneway="0"/>
    <type id="highway.primary_link" priority="7" numLanes="1" speed="22.22" disallow="tram rail_urban rail rail_electric rail_fast ship container cable_car subway aircraft wheelchair scooter drone" oneway="0"/>
    <type id="highway.residential" priority="3" numLanes="1" speed="13.89" disallow="tram rail_urban rail rail_electric rail_fast ship container cable_car subway aircraft wheelchair scooter drone" oneway="0"/>
    <type id="highway.service" priority="1" numLanes="1" speed="5.56" allow="pedestrian delivery bicycle" oneway="0"/>
    <type id="highway.tertiary" priority="10" numLanes="1" speed="22.22" disallow="tram rail_urban rail rail_electric rail_fast ship container cable_car subway aircraft wheelchair scooter drone" oneway="0"/>
    <type id="highway.trunk" priority="13" numLanes="2" speed="27.78" disallow="pedestrian bicycle tram rail_urban rail rail_electric rail_fast ship container cable_car subway aircraft wheelchair scooter drone" oneway="0"/>

    <edge id=":11434948372_0" function="internal">
        <lane id=":11434948372_0_0" index="0" allow="pedestrian delivery bicycle" speed="5.56" length="3.16" shape="3570.70,1583.06 3568.82,1580.53"/>
    </edge>
    <edge id=":11434948372_1" function="internal">
        <lane id=":11434948372_1_0" index="0" allow="pedestrian delivery bicycle" speed="5.43" length="11.12" shape="3570.70,1583.06 3568.89,1580.35 3569.06,1579.12 3571.20,1579.37 3575.31,1581.10"/>
    </edge>
    <edge id=":11434948372_2" function="internal">
        <lane id=":11434948372_2_0" index="0" allow="pedestrian delivery bicycle" speed="3.65" length="4.67" shape="3570.70,1583.06 3570.57,1581.63 3570.94,1580.81 3571.81,1580.62 3573.19,1581.05"/>
    </edge>
    <edge id=":11434948372_3" function="internal">
        <lane id=":11434948372_3_0" index="0" allow="pedestrian delivery bicycle" speed="5.56" length="4.62" shape="3571.47,1578.73 3572.32,1579.75 3573.10,1580.25 3574.03,1580.58 3575.31,1581.10"/>
    </edge>
    <edge id=":11434948372_4" function="internal">
        <lane id=":11434948372_4_0" index="0" allow="pedestrian delivery bicycle" speed="5.56" length="2.88" shape="3571.47,1578.73 3573.19,1581.05"/>
    </edge>
    <edge id=":11434948372_5" function="internal">
        <lane id=":11434948372_5_0" index="0" allow="pedestrian delivery bicycle" speed="3.65" length="4.67" shape="3571.47,1578.73 3571.48,1580.18 3571.04,1580.96 3570.16,1581.07 3568.82,1580.53"/>
    </edge>
    <edge id=":11434948372_6" function="internal">
        <lane id=":11434948372_6_0" index="0" allow="pedestrian delivery bicycle" speed="5.56" length="4.99" shape="3570.31,1585.23 3570.04,1583.77 3569.87,1582.74 3569.56,1581.78 3568.82,1580.53"/>
    </edge>
    <edge id=":11434948372_7" function="internal">
        <lane id=":11434948372_7_0" index="0" allow="pedestrian delivery bicycle" speed="5.56" length="9.71" shape="3570.31,1585.23 3569.97,1582.19 3570.69,1580.50 3572.47,1580.13 3575.31,1581.10"/>
    </edge>
    <edge id=":11434948372_8" function="internal">
        <lane id=":11434948372_8_0" index="0" allow="pedestrian delivery bicycle" speed="5.41" length="10.98" shape="3570.31,1585.23 3569.53,1580.87 3569.74,1578.73 3570.96,1578.78 3573.19,1581.05"/>
    </edge>
    <edge id=":11434948383_0" function="internal">
        <lane id=":11434948383_0_0" index="0" allow="pedestrian delivery bicycle" speed="5.56" length="4.54" shape="3584.86,1600.58 3583.97,1599.59 3583.23,1599.05 3582.36,1598.68 3581.10,1598.20"/>
    </edge>
    <edge id=":11434948383_1" function="internal">
        <lane id=":11434948383_1_0" index="0" allow="pedestrian delivery bicycle" speed="5.56" length="2.48" shape="3584.86,1600.58 3583.30,1598.65"/>
    </edge>
    <edge id=":11434948383_2" function="internal">
        <lane id=":11434948383_2_0" index="0" allow="pedestrian delivery bicycle" speed="3.65" length="4.67" shape="3584.86,1600.58 3584.73,1599.14 3585.10,1598.33 3585.97,1598.13 3587.35,1598.56"/>
    </edge>
    <edge id=":11434948383_3" function="internal">
        <lane id=":11434948383_3_0" index="0" allow="pedestrian delivery bicycle" speed="5.56" length="4.44" shape="3585.95,1594.44 3586.14,1595.75 3586.28,1596.67 3586.61,1597.51 3587.35,1598.56"/>
    </edge>
    <edge id=":11434948383_4" function="internal">
        <lane id=":11434948383_4_0" index="0" allow="pedestrian delivery bicycle" speed="5.43" length="8.52" shape="3585.95,1594.44 3586.05,1596.98 3585.28,1598.46 3583.63,1598.86 3581.10,1598.20"/>
    </edge>
    <edge id=":11434948383_5" function="internal">
        <lane id=":11434948383_5_0" index="0" allow="pedestrian delivery bicycle" speed="5.12" length="9.44" shape="3585.95,1594.44 3586.42,1598.30 3586.14,1600.28 3585.10,1600.40 3583.30,1598.65"/>
    </edge>
    <edge id=":11434948383_6" function="internal">
        <lane id=":11434948383_6_0" index="0" allow="pedestrian delivery bicycle" speed="5.56" length="2.48" shape="3585.79,1596.64 3587.35,1598.56"/>
    </edge>
    <edge id=":11434948383_7" function="internal">
        <lane id=":11434948383_7_0" index="0" allow="pedestrian delivery bicycle" speed="5.07" length="9.17" shape="3585.79,1596.64 3587.05,1598.65 3586.68,1599.58 3584.70,1599.43 3581.10,1598.20"/>
    </edge>
    <edge id=":11434948383_8" function="internal">
        <lane id=":11434948383_8_0" index="0" allow="pedestrian delivery bicycle" speed="3.65" length="4.67" shape="3585.79,1596.64 3585.92,1598.07 3585.55,1598.89 3584.68,1599.08 3583.30,1598.65"/>
    </edge>
    <edge id=":11449411118_0" function="internal">
        <lane id=":11449411118_0_0" index="0" disallow="tram rail_urban rail rail_electric rail_fast ship container cable_car subway aircraft wheelchair scooter drone" speed="27.78" length="6.72" shape="3616.20,1600.36 3615.78,1598.41 3614.30,1597.31 3612.83,1596.21 3612.42,1594.26"/>
        <lane id=":11449411118_0_1" index="1" disallow="tram rail_urban rail rail_electric rail_fast ship container cable_car subway aircraft wheelchair scooter drone" speed="27.78" length="6.72" shape="3616.20,1600.36 3616.23,1598.73 3615.88,1597.59 3615.53,1596.46 3615.57,1594.83"/>
        <lane id=":11449411118_0_2" index="2" disallow="tram rail_urban rail rail_electric rail_fast ship container cable_car subway aircraft wheelchair scooter drone" speed="27.78" length="6.72" shape="3616.20,1600.36 3616.73,1598.81 3617.45,1597.88 3618.18,1596.94 3618.72,1595.39"/>
        <lane id=":11449411118_0_3" index="3" disallow="tram rail_urban rail rail_electric rail_fast ship container cable_car subway aircraft wheelchair scooter drone" speed="27.78" length="6.72" shape="3619.21,1601.70 3619.78,1599.92 3620.54,1598.83 3621.29,1597.73 3621.87,1595.96"/>
        <lane id=":11449411118_0_4" index="4" disallow="tram rail_urban rail rail_electric rail_fast ship container cable_car subway aircraft wheelchair scooter drone" speed="27.78" length="6.72" shape="3619.21,1601.70 3620.31,1599.81 3622.11,1599.11 3623.91,1598.41 3625.01,1596.52"/>
    </edge>
    <edge id=":2031414890_0" function="internal">
        <lane id=":2031414890_0_0" index="0" disallow="tram rail_urban rail rail_electric rail_fast ship container cable_car subway aircraft wheelchair scooter drone" speed="27.78" length="5.55" shape="3606.67,1532.46 3605.24,1532.28 3604.21,1532.63 3603.16,1533.03 3601.68,1533.01"/>
        <lane id=":2031414890_0_1" index="1" disallow="tram rail_urban rail rail_electric rail_fast ship container cable_car subway aircraft wheelchair scooter drone" speed="27.78" length="5.55" shape="3607.71,1529.43 3606.17,1529.22 3605.06,1529.55 3603.94,1529.93 3602.36,1529.88"/>
        <lane id=":2031414890_0_2" index="2" disallow="tram rail_urban rail rail_electric rail_fast ship container cable_car subway aircraft wheelchair scooter drone" speed="27.78" length="5.55" shape="3608.74,1526.40 3607.10,1526.15 3605.92,1526.46 3604.73,1526.83 3603.04,1526.75"/>
        <lane id=":2031414890_0_3" index="3" disallow="tram rail_urban rail rail_electric rail_fast ship container cable_car subway aircraft wheelchair scooter drone" speed="27.78" length="5.55" shape="3608.74,1526.40 3607.20,1525.66 3606.26,1524.90 3605.31,1524.19 3603.72,1523.63"/>
    </edge>
    <edge id=":2031414899_0" function="internal">
        <lane id=":2031414899_0_0" index="0" disallow="tram rail_urban rail rail_electric rail_fast ship container cable_car subway aircraft wheelchair scooter drone" speed="27.78" length="0.33" shape="3624.30,1673.83 3624.18,1674.01"/>
        <lane id=":2031414899_0_1" index="1" disallow="tram rail_urban rail rail_electric rail_fast ship container cable_car subway aircraft wheelchair scooter drone" speed="27.78" length="0.33" shape="3621.64,1672.04 3621.48,1672.29"/>
        <lane id=":2031414899_0_2" index="2" disallow="tram rail_urban rail rail_electric rail_fast ship container cable_car subway aircraft wheelchair scooter drone" speed="27.78" length="0.33" shape="3618.98,1670.26 3618.78,1670.57"/>
        <lane id=":2031414899_0_3" index="3" disallow="tram rail_urban rail rail_electric rail_fast ship container cable_car subway aircraft wheelchair scooter drone" speed="27.78" length="0.33" shape="3616.32,1668.48 3616.09,1668.84"/>
    </edge>
    <edge id=":2031414903_0" function="internal">
        <lane id=":2031414903_0_0" index="0" disallow="tram rail_urban rail rail_electric rail_fast ship container cable_car subway aircraft wheelchair scooter drone" speed="9.69" length="13.02" shape="3610.66,1499.90 3623.67,1499.69"/>
        <lane id=":2031414903_0_1" index="1" disallow="tram rail_urban rail rail_electric rail_fast ship container cable_car subway aircraft wheelchair scooter drone" speed="10.64" length="15.83" shape="3610.93,1503.09 3613.74,1502.86 3618.98,1502.36 3624.11,1501.71 3626.59,1501.01"/>
    </edge>
    <edge id=":2031414903_2" function="internal">
        <lane id=":2031414903_2_0" index="0" disallow="tram rail_urban rail rail_electric rail_fast ship container cable_car subway aircraft wheelchair scooter drone" speed="27.78" length="16.33" shape="3615.02,1513.49 3616.61,1509.01 3618.72,1506.38 3621.14,1503.85 3623.67,1499.69"/>
        <lane id=":2031414903_2_1" index="1" disallow="tram rail_urban rail rail_electric rail_fast ship container cable_car subway aircraft wheelchair scooter drone" speed="20.38" length="16.33" shape="3618.19,1514.15 3618.87,1509.81 3621.03,1507.32 3623.86,1504.96 3626.59,1501.01"/>
    </edge>
    <edge id=":271064234_0" function="internal">
        <lane id=":271064234_0_0" index="0" disallow="tram rail_urban rail rail_electric rail_fast ship container cable_car subway aircraft wheelchair scooter drone" speed="22.22" length="8.18" shape="3817.67,1652.71 3819.14,1654.64 3820.44,1655.73 3821.73,1656.84 3823.16,1658.79"/>
        <lane id=":271064234_0_1" index="1" disallow="tram rail_urban rail rail_electric rail_fast ship container cable_car subway aircraft wheelchair scooter drone" speed="22.22" length="8.18" shape="3814.94,1654.37 3816.39,1656.28 3817.69,1657.37 3818.97,1658.46 3820.39,1660.40"/>
        <lane id=":271064234_0_2" index="2" disallow="tram rail_urban rail rail_electric rail_fast ship container cable_car subway aircraft wheelchair scooter drone" speed="22.22" length="8.18" shape="3812.20,1656.03 3813.65,1657.93 3814.94,1659.01 3816.22,1660.09 3817.63,1662.01"/>
    </edge>
    <edge id=":3105658889_0" function="internal">
        <lane id=":3105658889_0_0" index="0" disallow="tram rail_urban rail rail_electric rail_fast ship container cable_car subway aircraft wheelchair scooter drone" speed="19.42" length="4.39" shape="3701.51,1491.22 3701.64,1488.40"/>
        <lane id=":3105658889_0_1" index="1" disallow="tram rail_urban rail rail_electric rail_fast ship container cable_car subway aircraft wheelchair scooter drone" speed="21.68" length="4.39" shape="3699.71,1493.86 3699.13,1490.38"/>
        <lane id=":3105658889_0_2" index="2" disallow="tram rail_urban rail rail_electric rail_fast ship container cable_car subway aircraft wheelchair scooter drone" speed="24.01" length="4.39" shape="3697.91,1496.51 3696.62,1492.37"/>
        <lane id=":3105658889_0_3" index="3" disallow="tram rail_urban rail rail_electric rail_fast ship container cable_car subway aircraft wheelchair scooter drone" speed="26.28" length="4.39" shape="3696.11,1499.15 3694.11,1494.35"/>
        <lane id=":3105658889_0_4" index="4" disallow="tram rail_urban rail rail_electric rail_fast ship container cable_car subway aircraft wheelchair scooter drone" speed="27.78" length="4.39" shape="3694.30,1501.80 3691.60,1496.34"/>
    </edge>
    <edge id=":3105658890_0" function="internal">
        <lane id=":3105658890_0_0" index="0" disallow="tram rail_urban rail rail_electric rail_fast ship container cable_car subway aircraft wheelchair scooter drone" speed="27.78" length="1.79" shape="3710.25,1499.78 3710.65,1500.67 3710.89,1501.29 3711.08,1501.92 3711.31,1502.87"/>
        <lane id=":3105658890_0_1" index="1" disallow="tram rail_urban rail rail_electric rail_fast ship container cable_car subway aircraft wheelchair scooter drone" speed="27.78" length="1.79" shape="3707.34,1501.10 3707.66,1501.82 3707.86,1502.33 3708.01,1502.85 3708.21,1503.62"/>
        <lane id=":3105658890_0_2" index="2" disallow="tram rail_urban rail rail_electric rail_fast ship container cable_car subway aircraft wheelchair scooter drone" speed="27.78" length="1.79" shape="3704.42,1502.42 3704.67,1502.98 3704.83,1503.37 3704.95,1503.78 3705.10,1504.38"/>
        <lane id=":3105658890_0_3" index="3" disallow="tram rail_urban rail rail_electric rail_fast ship container cable_car subway aircraft wheelchair scooter drone" speed="27.78" length="1.79" shape="3701.50,1503.73 3701.68,1504.14 3701.79,1504.42 3701.88,1504.71 3701.99,1505.14"/>
        <lane id=":3105658890_0_4" index="4" disallow="tram rail_urban rail rail_electric rail_fast ship container cable_car subway aircraft wheelchair scooter drone" speed="27.78" length="1.79" shape="3698.59,1505.05 3698.70,1505.29 3698.76,1505.46 3698.81,1505.64 3698.88,1505.89"/>
        <lane id=":3105658890_0_5" index="5" disallow="tram rail_urban rail rail_electric rail_fast ship container cable_car subway aircraft wheelchair scooter drone" speed="27.78" length="1.79" shape="3695.67,1506.37 3695.71,1506.45 3695.73,1506.51 3695.75,1506.57 3695.77,1506.65"/>
    </edge>
    <edge id=":3105658900_0" function="internal">
        <lane id=":3105658900_0_0" index="0" disallow="tram rail_urban rail rail_electric rail_fast ship container cable_car subway aircraft wheelchair scooter drone" speed="22.22" length="10.76" shape="3740.93,1532.30 3743.20,1534.24 3745.64,1534.86 3748.13,1535.57 3750.57,1537.76"/>
        <lane id=":3105658900_0_1" index="1" disallow="tram rail_urban rail rail_electric rail_fast ship container cable_car subway aircraft wheelchair scooter drone" speed="22.22" length="10.76" shape="3740.93,1532.30 3742.83,1534.58 3744.42,1535.92 3746.03,1537.27 3747.94,1539.59"/>
        <lane id=":3105658900_0_2" index="2" disallow="tram rail_urban rail rail_electric rail_fast ship container cable_car subway aircraft wheelchair scooter drone" speed="22.22" length="10.76" shape="3740.93,1532.30 3742.42,1534.87 3743.11,1536.84 3743.81,1538.81 3745.31,1541.41"/>
        <lane id=":3105658900_0_3" index="3" disallow="tram rail_urban rail rail_electric rail_fast ship container cable_car subway aircraft wheelchair scooter drone" speed="22.22" length="10.76" shape="3740.93,1532.30 3741.97,1535.10 3741.69,1537.60 3741.47,1540.18 3742.68,1543.23"/>
    </edge>
    <edge id=":3105658900_4" function="internal">
        <lane id=":3105658900_4_0" index="0" disallow="pedestrian tram rail_urban rail rail_electric rail_fast ship container cable_car subway aircraft wheelchair scooter drone" speed="7.37" length="12.31" shape="3740.93,1532.30 3741.55,1534.32 3740.74,1536.55 3738.51,1538.98 3734.84,1541.63"/>
        <lane id=":3105658900_4_1" index="1" disallow="pedestrian tram rail_urban rail rail_electric rail_fast ship container cable_car subway aircraft wheelchair scooter drone" speed="6.85" length="10.46" shape="3740.93,1532.30 3740.76,1533.16 3739.40,1534.55 3736.86,1536.47 3733.14,1538.92"/>
        <lane id=":3105658900_4_2" index="2" disallow="pedestrian tram rail_urban rail rail_electric rail_fast ship container cable_car subway aircraft wheelchair scooter drone" speed="6.79" length="10.27" shape="3740.93,1532.30 3731.44,1536.21"/>
    </edge>
    <edge id=":3105658905_0" function="internal">
        <lane id=":3105658905_0_0" index="0" disallow="pedestrian tram rail_urban rail rail_electric rail_fast ship container cable_car subway aircraft wheelchair scooter drone" speed="16.98" length="6.71" shape="3687.76,1587.91 3687.36,1590.03 3687.46,1591.63 3687.33,1593.10 3686.26,1594.80"/>
        <lane id=":3105658905_0_1" index="1" disallow="pedestrian tram rail_urban rail rail_electric rail_fast ship container cable_car subway aircraft wheelchair scooter drone" speed="15.71" length="6.71" shape="3687.76,1587.91 3687.01,1589.55 3686.22,1590.51 3685.23,1591.35 3683.90,1592.63"/>
    </edge>
    <edge id=":3105658905_2" function="internal">
        <lane id=":3105658905_2_0" index="0" disallow="tram rail_urban rail rail_electric rail_fast ship container cable_car subway aircraft wheelchair scooter drone" speed="16.53" length="8.67" shape="3686.26,1582.50 3685.41,1585.14 3684.59,1586.87 3683.42,1588.41 3681.55,1590.46"/>
        <lane id=":3105658905_2_1" index="1" disallow="tram rail_urban rail rail_electric rail_fast ship container cable_car subway aircraft wheelchair scooter drone" speed="15.21" length="8.67" shape="3683.20,1581.59 3682.47,1583.81 3681.77,1585.27 3680.78,1586.56 3679.20,1588.30"/>
    </edge>
    <edge id=":315743335_0" function="internal">
        <lane id=":315743335_0_0" index="0" disallow="tram rail_urban rail rail_electric rail_fast ship container cable_car subway aircraft wheelchair scooter drone" speed="22.22" length="8.82" shape="3844.30,1541.40 3846.80,1541.28 3848.47,1540.42 3850.14,1539.54 3852.64,1539.37"/>
        <lane id=":315743335_0_1" index="1" disallow="tram rail_urban rail rail_electric rail_fast ship container cable_car subway aircraft wheelchair scooter drone" speed="22.22" length="8.82" shape="3843.82,1544.57 3846.33,1544.45 3848.01,1543.58 3849.69,1542.71 3852.21,1542.55"/>
        <lane id=":315743335_0_2" index="2" disallow="tram rail_urban rail rail_electric rail_fast ship container cable_car subway aircraft wheelchair scooter drone" speed="22.22" length="8.82" shape="3843.33,1547.73 3845.86,1547.61 3847.55,1546.75 3849.25,1545.88 3851.78,1545.72"/>
    </edge>
    <edge id=":315744796_0" function="internal">
        <lane id=":315744796_0_0" index="0" disallow="pedestrian bicycle tram rail_urban rail rail_electric rail_fast ship container cable_car subway aircraft wheelchair scooter drone" speed="7.03" length="9.44" shape="3716.82,1435.96 3714.09,1436.81 3712.17,1438.11 3711.05,1439.84 3710.75,1442.01"/>
        <lane id=":315744796_0_1" index="1" disallow="pedestrian bicycle tram rail_urban rail rail_electric rail_fast ship container cable_car subway aircraft wheelchair scooter drone" speed="8.45" length="14.02" shape="3716.19,1432.82 3712.29,1434.09 3709.55,1436.06 3707.97,1438.75 3707.56,1442.15"/>
    </edge>
    <edge id=":315744796_2" function="internal">
        <lane id=":315744796_2_0" index="0" disallow="tram rail_urban rail rail_electric rail_fast ship container cable_car subway aircraft wheelchair scooter drone" speed="22.22" length="24.07" shape="3715.55,1429.68 3692.44,1436.29"/>
        <lane id=":315744796_2_1" index="1" disallow="tram rail_urban rail rail_electric rail_fast ship container cable_car subway aircraft wheelchair scooter drone" speed="22.22" length="24.07" shape="3714.91,1426.55 3691.73,1433.17"/>
    </edge>
    <edge id=":315744796_4" function="internal">
        <lane id=":315744796_4_0" index="0" disallow="pedestrian bicycle tram rail_urban rail rail_electric rail_fast ship container cable_car subway aircraft wheelchair scooter drone" speed="27.78" length="22.15" shape="3708.49,1419.38 3709.75,1426.02 3710.30,1430.61 3710.51,1435.25 3710.75,1442.01"/>
        <lane id=":315744796_4_1" index="1" disallow="pedestrian bicycle tram rail_urban rail rail_electric rail_fast ship container cable_car subway aircraft wheelchair scooter drone" speed="27.78" length="22.15" shape="3705.32,1419.84 3706.56,1426.38 3707.11,1430.91 3707.32,1435.49 3707.56,1442.15"/>
        <lane id=":315744796_4_2" index="2" disallow="pedestrian bicycle tram rail_urban rail rail_electric rail_fast ship container cable_car subway aircraft wheelchair scooter drone" speed="27.78" length="22.15" shape="3702.15,1420.30 3703.37,1426.75 3703.91,1431.22 3704.13,1435.72 3704.36,1442.29"/>
        <lane id=":315744796_4_3" index="3" disallow="pedestrian bicycle tram rail_urban rail rail_electric rail_fast ship container cable_car subway aircraft wheelchair scooter drone" speed="27.78" length="22.15" shape="3698.98,1420.77 3700.18,1427.12 3700.72,1431.52 3700.93,1435.96 3701.16,1442.43"/>
        <lane id=":315744796_4_4" index="4" disallow="pedestrian bicycle tram rail_urban rail rail_electric rail_fast ship container cable_car subway aircraft wheelchair scooter drone" speed="27.78" length="22.15" shape="3695.80,1421.23 3696.99,1427.49 3697.53,1431.82 3697.74,1436.19 3697.97,1442.57"/>
    </edge>
    <edge id=":315744796_9" function="internal">
        <lane id=":315744796_9_0" index="0" disallow="pedestrian bicycle tram rail_urban rail rail_electric rail_fast ship container cable_car subway aircraft wheelchair scooter drone" speed="8.02" length="14.08" shape="3695.80,1421.23 3696.37,1425.92 3695.88,1429.47 3694.33,1431.89 3691.73,1433.17"/>
    </edge>
    <edge id=":3693932233_0" function="internal">
        <lane id=":3693932233_0_0" index="0" disallow="tram rail_urban rail rail_electric rail_fast ship container cable_car subway aircraft wheelchair scooter drone" speed="22.19" length="7.08" shape="3593.33,1451.35 3592.45,1449.97 3591.76,1449.08 3590.95,1448.30 3589.69,1447.24"/>
        <lane id=":3693932233_0_1" index="1" disallow="tram rail_urban rail rail_electric rail_fast ship container cable_car subway aircraft wheelchair scooter drone" speed="22.22" length="7.08" shape="3596.05,1449.67 3595.01,1448.03 3594.19,1446.97 3593.23,1446.04 3591.74,1444.78"/>
        <lane id=":3693932233_0_2" index="2" disallow="tram rail_urban rail rail_electric rail_fast ship container cable_car subway aircraft wheelchair scooter drone" speed="22.22" length="7.08" shape="3598.77,1447.99 3597.57,1446.09 3596.63,1444.86 3595.51,1443.78 3593.79,1442.33"/>
        <lane id=":3693932233_0_3" index="3" disallow="tram rail_urban rail rail_electric rail_fast ship container cable_car subway aircraft wheelchair scooter drone" speed="22.22" length="7.08" shape="3601.50,1446.31 3600.13,1444.15 3599.06,1442.75 3597.80,1441.52 3595.84,1439.87"/>
    </edge>
    <edge id=":3693932235_0" function="internal">
        <lane id=":3693932235_0_0" index="0" disallow="tram rail_urban rail rail_electric rail_fast ship container cable_car subway aircraft wheelchair scooter drone" speed="22.22" length="5.01" shape="3604.32,1469.30 3601.76,1465.05"/>
        <lane id=":3693932235_0_1" index="1" disallow="tram rail_urban rail rail_electric rail_fast ship container cable_car subway aircraft wheelchair scooter drone" speed="22.22" length="5.01" shape="3607.06,1467.65 3604.49,1463.38"/>
        <lane id=":3693932235_0_2" index="2" disallow="tram rail_urban rail rail_electric rail_fast ship container cable_car subway aircraft wheelchair scooter drone" speed="22.22" length="5.01" shape="3609.81,1466.01 3607.21,1461.70"/>
        <lane id=":3693932235_0_3" index="3" disallow="tram rail_urban rail rail_electric rail_fast ship container cable_car subway aircraft wheelchair scooter drone" speed="22.22" length="5.01" shape="3612.55,1464.36 3609.94,1460.02"/>
    </edge>
    <edge id=":3693932241_0" function="internal">
        <lane id=":3693932241_0_0" index="0" disallow="tram rail_urban rail rail_electric rail_fast ship container cable_car subway aircraft wheelchair scooter drone" speed="22.22" length="14.09" shape="3737.44,1521.92 3741.05,1522.61 3743.68,1521.74 3746.39,1520.58 3750.24,1520.41"/>
        <lane id=":3693932241_0_1" index="1" disallow="tram rail_urban rail rail_electric rail_fast ship container cable_car subway aircraft wheelchair scooter drone" speed="22.22" length="14.09" shape="3736.19,1524.86 3740.00,1525.64 3742.79,1524.83 3745.67,1523.71 3749.75,1523.57"/>
        <lane id=":3693932241_0_2" index="2" disallow="tram rail_urban rail rail_electric rail_fast ship container cable_car subway aircraft wheelchair scooter drone" speed="22.22" length="14.09" shape="3734.93,1527.80 3738.96,1528.67 3741.91,1527.91 3744.96,1526.83 3749.26,1526.73"/>
        <lane id=":3693932241_0_3" index="3" disallow="tram rail_urban rail rail_electric rail_fast ship container cable_car subway aircraft wheelchair scooter drone" speed="22.22" length="14.09" shape="3734.93,1527.80 3738.83,1529.14 3741.67,1529.48 3744.59,1529.50 3748.77,1529.89"/>
        <lane id=":3693932241_0_4" index="4" disallow="tram rail_urban rail rail_electric rail_fast ship container cable_car subway aircraft wheelchair scooter drone" speed="22.22" length="14.09" shape="3734.93,1527.80 3738.80,1529.66 3741.42,1531.07 3744.13,1532.17 3748.28,1533.06"/>
    </edge>
    <edge id=":3693932241_5" function="internal">
        <lane id=":3693932241_5_0" index="0" disallow="tram rail_urban rail rail_electric rail_fast ship container cable_car subway aircraft wheelchair scooter drone" speed="11.92" length="7.49" shape="3734.93,1527.80 3736.97,1528.66 3738.35,1529.38 3739.49,1530.39 3740.82,1532.13"/>
    </edge>
    <edge id=":4951983598_0" function="internal">
        <lane id=":4951983598_0_0" index="0" allow="pedestrian delivery bicycle" speed="7.03" length="22.32" shape="3597.46,1627.65 3595.61,1635.69 3595.54,1638.52 3597.24,1636.16 3600.71,1628.60"/>
        <lane id=":4951983598_0_1" index="1" allow="pedestrian delivery bicycle" speed="9.57" length="43.19" shape="3597.46,1627.65 3593.84,1643.38 3593.64,1649.05 3596.86,1644.65 3603.51,1630.19"/>
    </edge>
    <edge id=":4951983598_2" function="internal">
        <lane id=":4951983598_2_0" index="0" allow="pedestrian delivery bicycle" speed="3.67" length="4.77" shape="3597.46,1627.65 3596.58,1628.82 3595.74,1629.19 3594.95,1628.74 3594.20,1627.47"/>
    </edge>
    <edge id=":4951983598_3" function="internal">
        <lane id=":4951983598_3_0" index="0" allow="pedestrian delivery bicycle" speed="16.67" length="35.51" shape="3584.30,1661.52 3588.48,1649.95 3591.28,1640.15 3593.07,1632.53 3594.20,1627.47"/>
    </edge>
    <edge id=":4951983598_4" function="internal">
        <lane id=":4951983598_4_0" index="0" disallow="tram rail_urban rail rail_electric rail_fast ship container cable_car subway aircraft wheelchair scooter drone" speed="27.78" length="35.94" shape="3584.30,1661.52 3600.71,1628.60"/>
        <lane id=":4951983598_4_1" index="1" disallow="tram rail_urban rail rail_electric rail_fast ship container cable_car subway aircraft wheelchair scooter drone" speed="27.78" length="35.94" shape="3587.26,1662.73 3603.51,1630.19"/>
        <lane id=":4951983598_4_2" index="2" disallow="tram rail_urban rail rail_electric rail_fast ship container cable_car subway aircraft wheelchair scooter drone" speed="27.78" length="35.94" shape="3590.23,1663.93 3606.31,1631.78"/>
        <lane id=":4951983598_4_3" index="3" disallow="tram rail_urban rail rail_electric rail_fast ship container cable_car subway aircraft wheelchair scooter drone" speed="27.78" length="35.94" shape="3593.19,1665.13 3609.11,1633.37"/>
        <lane id=":4951983598_4_4" index="4" disallow="tram rail_urban rail rail_electric rail_fast ship container cable_car subway aircraft wheelchair scooter drone" speed="27.78" length="35.94" shape="3596.16,1666.33 3611.91,1634.96"/>
    </edge>