<configuration>
    <input>
        <net-file value="tahrir.net.xml"/>
        <route-files value="tahrir.rou.xml"/>
    </input>

    <time>
        <begin value="0"/>
        <end value="500"/>
    </time>
</configuration>
