<?xml version="1.0" encoding="UTF-8"?>
<additional>
    <vType id="type_car"        vClass="passenger"   color="0.8,0.8,0.8" length="4.5"  maxSpeed="13.9"/>
    <vType id="type_taxi"       vClass="taxi"        color="1.0,1.0,0.0" length="4.5"  maxSpeed="13.9"/>
    <vType id="type_bus"        vClass="bus"         color="1.0,0.5,0.0" length="12"   maxSpeed="11.1"/>
    <vType id="type_microbus"   vClass="bus"         color="0.0,0.8,1.0" length="7"    maxSpeed="11.1"/>
    <vType id="type_truck"      vClass="truck"       color="0.5,0.3,0.1" length="9"    maxSpeed="11.1"/>
    <vType id="type_motorcycle" vClass="motorcycle"  color="1.0,0.0,0.0" length="2.2"  maxSpeed="16.7"/>
    <vType id="type_bicycle"    vClass="bicycle"     color="0.0,0.8,0.0" length="1.8"  maxSpeed="5.6"/>
</additional>
