<?xml version="1.0" encoding="UTF-8"?>

<!-- generated on 2026-04-30 16:23:39.987900 by randomTrips.py v1_24_0+0000-b72eb3fabc8
<configuration>
    <net-file value="simulation/taksim/taksim.net.xml"/>
    <output-trip-file value="simulation/taksim/taksim_trips.xml"/>
    <route-file value="simulation/taksim/taksim_routes.rou.xml"/>
    <begin value="28800.0"/>
    <end value="36000.0"/>
    <period value="2.0"/>
</configuration>
-->

<!-- generated on 2026-04-30 16:23:39 by Eclipse SUMO duarouter Version 1.24.0
<duarouterConfiguration xmlns:xsi="http://www.w3.org/2001/XMLSchema-instance" xsi:noNamespaceSchemaLocation="http://sumo.dlr.de/xsd/duarouterConfiguration.xsd">

    <input>
        <net-file value="simulation/taksim/taksim.net.xml"/>
        <route-files value="simulation/taksim/taksim_trips.xml"/>
    </input>

    <output>
        <output-file value="simulation/taksim/taksim_routes.rou.xml"/>
        <alternatives-output value="NUL"/>
    </output>

    <time>
        <begin value="28800.0"/>
        <end value="36000.0"/>
    </time>

    <report>
        <no-warnings value="true"/>
        <ignore-errors value="true"/>
        <no-step-log value="true"/>
    </report>

</duarouterConfiguration>
-->

<routes xmlns:xsi="http://www.w3.org/2001/XMLSchema-instance" xsi:noNamespaceSchemaLocation="http://sumo.dlr.de/xsd/routes_file.xsd">
    <vehicle id="0" depart="28800.00">
        <route edges="24806974#0 24806974#1 448373420 749043950#1 749043950#2 -24806967"/>
    </vehicle>
    <vehicle id="1" depart="28802.00">
        <route edges="-749043950#1 -448373420 24806974#2 24806974#3 24806974#4 24806974#5 -25562607"/>
    </vehicle>
    <vehicle id="2" depart="28804.00">
        <route edges="25556716#3 25556713#1 -25556713#1 -25556713#0 -25556716#2 -25556716#1 -25556716#0 1035804763 1061694136#0 1358218933 -25556723#2 -25556723#1 -25556723#0 25562607 -24806974#5 -24806974#4 -24806974#3 -24806974#2 24806974#2"/>
    </vehicle>
    <vehicle id="3" depart="28806.00">
        <route edges="1358218932#1 24805912#0 228979748#3 25562609#1 1381694704#0 1381694704#1 25562607 -24806974#5 -24806974#4 -24806974#3 -24806974#2 448373420 749043950#1 749043950#2 -24806967"/>
    </vehicle>
    <vehicle id="4" depart="28808.00">
        <route edges="-1119196153 25556721#2 1210159390#0 1210159390#1 1358218934 904774625 1061694136#0 1358218933 -1119115695#1 -1119115695#0 -25562603#2 -25562603#1"/>
    </vehicle>
    <vehicle id="5" depart="28810.00">
        <route edges="24806974#1 24806974#2 24806974#3 24806974#4 24806974#5 -25562607 1358218932#0 1358218932#1 24805912#0 228979748#3"/>
    </vehicle>
    <vehicle id="6" depart="28812.00">
        <route edges="-25562603#2 -25562603#1 -25562603#0 -25562600#1 25562600#1 25562603#0 25562603#1 25562603#2 25562615 131881144 24805591#2 24805591#3 24805591#4"/>
    </vehicle>
    <vehicle id="7" depart="28814.00">
        <route edges="25562600#1 25562603#0 25562603#1 25562603#2 1119115695#0 1119115695#1 -1119115695#1 -1119115695#0"/>
    </vehicle>
    <vehicle id="8" depart="28816.00">
        <route edges="25562600#1 25562603#0 25562603#1 25562603#2 25562615 -24806974#5 -24806974#4 -24806974#3 -24806974#2 24806974#2 24806974#3 24806974#4"/>
    </vehicle>
    <vehicle id="9" depart="28818.00">
        <route edges="1210159390#1 1358218934 904774625 1061694136#0 1358218933 -25556723#2 -25556723#1"/>
    </vehicle>
    <vehicle id="10" depart="28820.00">
        <route edges="749043950#1 749043950#2 -24806967 24806967 -749043950#2 -749043950#1 -448373420 24806974#2 24806974#3 24806974#4 24806974#5 -25562615 1119115695#0 1119115695#1 1358218935 1035804759 1210159391#0 1210159391#1 1210159391#2 1454856698 11773018 25556721#0 25556721#1 1119196153"/>
    </vehicle>
    <vehicle id="11" depart="28822.00">
        <route edges="-24806974#5"/>
    </vehicle>
    <vehicle id="12" depart="28824.00">
        <route edges="25562603#2 25562615 131881144 24805591#2 24805591#3 24805591#4 24805591#5 24805591#6"/>
    </vehicle>
    <vehicle id="13" depart="28826.00">
        <route edges="25562600#1 25562603#0 25562603#1 25562603#2 1119115695#0 1119115695#1 1358218935 1035804759 1035804766 1358218934 837911243 25556716#0"/>
    </vehicle>
    <vehicle id="14" depart="28828.00">
        <route edges="1210159391#2 1454856698 25562600#1 25562603#0 25562603#1 25562603#2 1119115695#0 1119115695#1 -25556723#2 -25556723#1 -25556723#0 1358218932#0 24805591#1"/>
    </vehicle>
    <vehicle id="15" depart="28830.00">
        <route edges="25562603#1 25562603#2 25562615 131881144 24805591#2 24805591#3 24805591#4 24805591#5 24805591#6 24805591#7"/>
    </vehicle>
    <vehicle id="16" depart="28832.00">
        <route edges="25562609#0 25562609#1 1381694704#0 24805591#1 24805591#2 24805591#3"/>
    </vehicle>
    <vehicle id="17" depart="28834.00">
        <route edges="25556716#0 25556716#1 25556716#2 25556716#3 25556713#1 -25556713#1 -25556713#0 -25556716#2 -25556716#1 -25556716#0 1035804763 1061694136#0 1358218933 -25556723#2 -25556723#1 -25556723#0 25562607 -24806974#5 -24806974#4 -24806974#3 -24806974#2 -24806974#1"/>
    </vehicle>
    <vehicle id="18" depart="28836.00">
        <route edges="-25562603#2 -25562603#1 -25562603#0 -25562600#1 25562600#1 25562603#0 25562603#1 25562603#2 25562615 -24806974#5 -24806974#4 -24806974#3 -24806974#2 448373420 749043950#1 749043950#2 -24806967 24806967 -749043950#2 -749043950#1"/>
    </vehicle>
    <vehicle id="19" depart="28838.00">
        <route edges="-24806974#4 -24806974#3 -24806974#2 24806974#2 24806974#3 24806974#4 24806974#5 -25562607 1358218932#0 1358218932#1 -25562609#1 -25562609#0"/>
    </vehicle>
    <vehicle id="20" depart="28840.00">
        <route edges="-25556713#0 -25556716#2 -25556716#1 -25556716#0 1035804763 1061694136#0 1358218933 -25556723#2 -25556723#1 -25556723#0 25562607 -24806974#5 -24806974#4 -24806974#3 -24806974#2 448373420 -749043950#0"/>
    </vehicle>
    <vehicle id="21" depart="28842.00">
        <route edges="24806974#0 24806974#1 24806974#2 24806974#3 24806974#4 24806974#5 -25562615 1119115695#0 1119115695#1 1358218935 1035804759 1210159391#0 1210159391#1 1210159391#2 1454856698 11773018 25556721#0 25556721#1 25556721#2 1210159390#0"/>
    </vehicle>
    <vehicle id="22" depart="28844.00">
        <route edges="1210159391#2 1454856698 25562600#1 25562603#0 25562603#1 25562603#2 -25562603#2"/>
    </vehicle>
    <vehicle id="23" depart="28846.00">
        <route edges="-448373420 24806974#2 24806974#3 24806974#4 24806974#5 131881144 24805591#2 37282390#0 37282390#1 37282390#2 37282390#3"/>
    </vehicle>
    <vehicle id="24" depart="28848.00">
        <route edges="24806974#1 24806974#2 24806974#3 24806974#4 24806974#5 131881144 24805591#2 24805591#3 24805591#4 24805591#5 24805591#6"/>
    </vehicle>
    <vehicle id="25" depart="28850.00">
        <route edges="-25556723#1 -25556723#0 25556723#0 25556723#1 25556723#2 1358218935 1035804759 1035804766 1358218934 837911243 25556716#0"/>
    </vehicle>
    <vehicle id="26" depart="28852.00">
        <route edges="-25556723#1 -25556723#0 25556723#0 25556723#1 25556723#2 1358218935 1035804759 1210159391#0"/>
    </vehicle>
    <vehicle id="27" depart="28854.00">
        <route edges="837911243 1035804763 1061694136#0 1358218933 -25556723#2 -25556723#1 -25556723#0 1358218932#0 1358218932#1 24805912#0 24805912#1"/>
    </vehicle>
    <vehicle id="28" depart="28856.00">
        <route edges="25562603#2 1119115695#0 1119115695#1 1358218935 1035804759 1210159391#0 1210159391#1 1210159391#2 1454856698 11773018 25556721#0 25556721#1 25556721#2"/>
    </vehicle>
    <vehicle id="29" depart="28858.00">
        <route edges="-25562607 25562607 -24806974#5 -24806974#4 -24806974#3 -24806974#2 448373420 749043950#1 749043950#2 -24806967"/>
    </vehicle>
    <vehicle id="30" depart="28860.00">
        <route edges="1119115695#1 -1119115695#1 -1119115695#0 25562615 -24806974#5 -24806974#4 -24806974#3 -24806974#2 448373420 -448373420"/>
    </vehicle>
    <vehicle id="31" depart="28862.00">
        <route edges="-25562603#1 -25562603#0 -25562600#1 25562600#1 25562603#0 25562603#1 25562603#2 25562615 131881144 24805591#2 37282390#0 37282390#1 37282390#2 37282390#3"/>
    </vehicle>
    <vehicle id="32" depart="28864.00">
        <route edges="25562609#1 1381694704#0 1381694704#1 25556723#0 25556723#1 25556723#2 -1119115695#1 -1119115695#0 1119115695#0"/>
    </vehicle>
    <vehicle id="33" depart="28866.00">
        <route edges="24806974#2 24806974#3 24806974#4 24806974#5 -25562615 1119115695#0 1119115695#1 1358218935 1035804759 1210159391#0 1210159391#1"/>
    </vehicle>
    <vehicle id="34" depart="28868.00">
        <route edges="-448373420 24806974#2 24806974#3 24806974#4 24806974#5 -25562607 1358218932#0 1358218932#1 -25562609#1"/>
    </vehicle>
    <vehicle id="35" depart="28870.00">
        <route edges="-24806974#5 -24806974#4 -24806974#3 -24806974#2 -24806974#1"/>
    </vehicle>
    <vehicle id="36" depart="28872.00">
        <route edges="-25556713#1 -25556713#0 -25556716#2 -25556716#1 -25556716#0 1035804763 1061694136#0 1358218933 -25556723#2 -25556723#1 -25556723#0 1358218932#0 1358218932#1 24805912#0"/>
    </vehicle>
    <vehicle id="37" depart="28874.00">
        <route edges="25556723#1 25556723#2 1358218935 1035804759 1035804766 1358218934 904774625 1061694136#0 1358218933 -25556723#2 -25556723#1 -25556723#0 1358218932#0"/>
    </vehicle>
    <vehicle id="38" depart="28876.00">
        <route edges="-24806974#2 24806974#2 24806974#3 24806974#4 24806974#5 -25562615 1119115695#0 1119115695#1 1358218935 1035804759 1210159391#0"/>
    </vehicle>
    <vehicle id="39" depart="28878.00">
        <route edges="749043950#2 -24806967 24806967 -749043950#2 -749043950#1 -448373420 24806974#2 24806974#3 24806974#4 24806974#5 -25562607 25562607"/>
    </vehicle>
    <vehicle id="40" depart="28880.00">
        <route edges="-1119115695#1 -1119115695#0 1119115695#0 1119115695#1 1358218935 1035804759 1035804766 1358218934 837911243 25556716#0"/>
    </vehicle>
    <vehicle id="41" depart="28882.00">
        <route edges="-448373420 24806974#2 24806974#3 24806974#4 24806974#5 -25562607 1358218932#0 1358218932#1 24805912#0 24805912#1"/>
    </vehicle>
    <vehicle id="42" depart="28884.00">
        <route edges="-25556713#1 -25556713#0 -25556716#2 -25556716#1 -25556716#0 1035804763 1061694136#0 1358218933 -25556723#2 -25556723#1 -25556723#0 1358218932#0 1358218932#1"/>
    </vehicle>
    <vehicle id="43" depart="28886.00">
        <route edges="1381694704#0 1381694704#1 25562607 -24806974#5 -24806974#4 -24806974#3 -24806974#2 448373420"/>
    </vehicle>
    <vehicle id="44" depart="28888.00">
        <route edges="25562609#1 1381694704#0 1381694704#1 25562607 -24806974#5 -24806974#4 -24806974#3 -24806974#2 448373420 -448373420"/>
    </vehicle>
    <vehicle id="45" depart="28890.00">
        <route edges="228979748#2 228979748#3 25562609#1 1381694704#0 1381694704#1 25556723#0 25556723#1 25556723#2 -1119115695#1 -1119115695#0 -25562603#2 -25562603#1 -25562603#0 -25562600#1"/>
    </vehicle>
    <vehicle id="46" depart="28892.00">
        <route edges="1035804763 1061694136#0 1358218933 -25556723#2 -25556723#1 -25556723#0 1358218932#0 1358218932#1 24805912#0 24805912#1"/>
    </vehicle>
    <vehicle id="47" depart="28894.00">
        <route edges="25556721#2 1210159390#0 1210159390#1 1358218934 904774625 1061694136#0 1358218933 -25556723#2 -25556723#1 -25556723#0 1358218932#0 1358218932#1 24805912#0 228979748#3"/>
    </vehicle>
    <vehicle id="48" depart="28896.00">
        <route edges="-1119115695#0 1119115695#0 1119115695#1"/>
    </vehicle>
    <vehicle id="49" depart="28898.00">
        <route edges="-1119115695#1 -1119115695#0 25562615 131881144 24805591#2 37282390#0 37282390#1 37282390#2"/>
    </vehicle>
    <vehicle id="50" depart="28900.00">
        <route edges="25562609#1 1381694704#0 1381694704#1 25556723#0 25556723#1 25556723#2 1358218935 1035804759 1210159391#0 1210159391#1 1210159391#2 1454856698 25562600#1 25562603#0"/>
    </vehicle>
    <vehicle id="51" depart="28902.00">
        <route edges="1119115695#0 1119115695#1 -1119115695#1 -1119115695#0 25562615 -24806974#5 -24806974#4 -24806974#3 -24806974#2"/>
    </vehicle>
    <vehicle id="52" depart="28904.00">
        <route edges="25562609#1 1381694704#0 1381694704#1 25562607 -24806974#5 -24806974#4 -24806974#3 -24806974#2 448373420"/>
    </vehicle>
    <vehicle id="53" depart="28906.00">
        <route edges="-24806974#4 -24806974#3 -24806974#2 24806974#2 24806974#3 24806974#4 24806974#5 -25562615 1119115695#0 1119115695#1 1358218935 1035804759 1210159391#0 1210159391#1 1210159391#2 1454856698"/>
    </vehicle>
    <vehicle id="54" depart="28908.00">
        <route edges="-24806974#3 -24806974#2 24806974#2 24806974#3 24806974#4 24806974#5 -25562615 1119115695#0 1119115695#1 1358218935 1035804759 1035804766 1358218934 837911243 25556716#0 25556716#1 25556716#2 25556716#3"/>
    </vehicle>
    <vehicle id="55" depart="28910.00">
        <route edges="25556721#2 1210159390#0 1210159390#1 1358218934 837911243 25556716#0 25556716#1 25556716#2 25556716#3 25556713#1 -25556713#1 -25556713#0 -25556716#2 -25556716#1"/>
    </vehicle>
    <vehicle id="56" depart="28912.00">
        <route edges="1454856698 25562600#1 25562603#0 25562603#1 25562603#2 1119115695#0 1119115695#1 -25556723#2 -25556723#1 -25556723#0 1358218932#0 24805591#1"/>
    </vehicle>
    <vehicle id="57" depart="28914.00">
        <route edges="-448373420 24806974#2 24806974#3 24806974#4 24806974#5 -25562607 1358218932#0 1358218932#1 24805912#0 228979748#3 25562609#1"/>
    </vehicle>
    <vehicle id="58" depart="28916.00">
        <route edges="1358218932#1 24805912#0 228979748#3 25562609#1 1381694704#0 1381694704#1 25556723#0 25556723#1 25556723#2 -1119115695#1 -1119115695#0 -25562603#2"/>
    </vehicle>
    <vehicle id="59" depart="28918.00">
        <route edges="-25562603#0 -25562600#1 25562600#1 25562603#0 25562603#1 25562603#2 1119115695#0 1119115695#1 1358218935 1035804759 1035804766 1358218934 837911243 1035804763"/>
    </vehicle>
    <vehicle id="60" depart="28920.00">
        <route edges="1358218935 1035804759 1035804766 1358218934 904774625 1061694136#0 1358218933 -25556723#2 -25556723#1 -25556723#0 25562607 -24806974#5 183827665"/>
    </vehicle>
    <vehicle id="61" depart="28922.00">
        <route edges="-25556716#0 1035804763 1061694136#0 1358218933 -1119115695#1 -1119115695#0 25562615 -25562607"/>
    </vehicle>
    <vehicle id="62" depart="28924.00">
        <route edges="1210159390#1 1358218934 904774625 1061694136#0 1358218933 -25556723#2 -25556723#1 -25556723#0 1358218932#0 24805591#1 24805591#2 24805591#3 24805591#4"/>
    </vehicle>
    <vehicle id="63" depart="28926.00">
        <route edges="-25562607"/>
    </vehicle>
    <vehicle id="64" depart="28928.00">
        <route edges="-24806974#3 -24806974#2 24806974#2 24806974#3 24806974#4 24806974#5 -25562607 1358218932#0 1358218932#1 24805912#0"/>
    </vehicle>
    <vehicle id="65" depart="28930.00">
        <route edges="-25562607 25562607 131881144 24805591#2 37282390#0"/>
    </vehicle>
    <vehicle id="66" depart="28932.00">
        <route edges="25562609#0 25562609#1 1381694704#0 1381694704#1 25562607 -24806974#5 -24806974#4 -24806974#3"/>
    </vehicle>
    <vehicle id="67" depart="28934.00">
        <route edges="-25562607 25562607 -24806974#5 -24806974#4 -24806974#3 -24806974#2 24806974#2"/>
    </vehicle>
    <vehicle id="68" depart="28936.00">
        <route edges="-25562603#1 -25562603#0 -25562600#1 25562600#1 25562603#0 25562603#1 25562603#2 1119115695#0 1119115695#1 1358218935 1035804759 1035804766 1358218934 837911243 25556716#0 25556716#1 25556716#2 25556716#3 25556713#1 -25556713#1 -25556713#0 -25556716#2"/>
    </vehicle>
    <vehicle id="69" depart="28938.00">
        <route edges="448373420 -448373420 24806974#2 24806974#3 24806974#4 24806974#5 131881144 24805591#2 24805591#3"/>
    </vehicle>
    <vehicle id="70" depart="28940.00">
        <route edges="1454856698 11773018 25556721#0 25556721#1 25556721#2"/>
    </vehicle>
    <vehicle id="71" depart="28942.00">
        <route edges="25562600#1 25562603#0 25562603#1 25562603#2 -25562603#2 -25562603#1 -25562603#0"/>
    </vehicle>
    <vehicle id="72" depart="28944.00">
        <route edges="-24806974#5 24806974#5 -25562607 1358218932#0 1358218932#1"/>
    </vehicle>
    <vehicle id="73" depart="28946.00">
        <route edges="1358218932#1 1381694704#0"/>
    </vehicle>
    <vehicle id="74" depart="28948.00">
        <route edges="25556716#3 25556713#1 -25556713#1 -25556713#0 -25556716#2 -25556716#1 -25556716#0 1035804763 1061694136#0 1358218933 -25556723#2 -25556723#1 -25556723#0 25562607 -24806974#5 -24806974#4 -24806974#3 -24806974#2 24806974#2"/>
    </vehicle>
    <vehicle id="75" depart="28950.00">
        <route edges="785064311 1454856698 25562600#1 25562603#0 25562603#1 25562603#2 1119115695#0 1119115695#1 1358218935 1035804759 1035804766 1358218934 837911243 25556716#0 25556716#1 25556716#2 25556716#3 25556713#1 -25556713#1 -25556713#0"/>
    </vehicle>
    <vehicle id="76" depart="28952.00">
        <route edges="1358218932#0 1381694704#1 25556723#0 25556723#1 25556723#2 1358218935 1035804759 1210159391#0 1210159391#1 1210159391#2 1454856698 11773018 25556721#0 25556721#1 1119196153"/>
    </vehicle>
    <vehicle id="77" depart="28954.00">
        <route edges="25562609#0 25562609#1 1381694704#0 1381694704#1 25562607 -25562615"/>
    </vehicle>
    <vehicle id="78" depart="28956.00">
        <route edges="-25562600#1 25562600#1 25562603#0 25562603#1 25562603#2 1119115695#0 1119115695#1 1358218935 1035804759 1035804766 1358218934 904774625 1061694136#0 1358218933"/>
    </vehicle>
    <vehicle id="79" depart="28958.00">
        <route edges="1358218932#1 24805912#0 228979748#3 25562609#1 1381694704#0 1381694704#1 25562607 -24806974#5 -24806974#4 -24806974#3 -24806974#2 448373420 -749043950#0"/>
    </vehicle>
    <vehicle id="80" depart="28960.00">
        <route edges="-25562609#1 25562609#1 1381694704#0 24805591#1 24805591#2 37282390#0 37282390#1"/>
    </vehicle>
    <vehicle id="81" depart="28962.00">
        <route edges="1358218935 1035804759 1035804766 1358218934 904774625 1061694136#0 1358218933 -25556723#2 -25556723#1 -25556723#0 25562607"/>
    </vehicle>
    <vehicle id="82" depart="28964.00">
        <route edges="837911243 1035804763 1061694136#0 1061694136#1 1035804759 1210159391#0 1210159391#1 1210159391#2 1454856698 25562600#1 25562603#0"/>
    </vehicle>
    <vehicle id="83" depart="28966.00">
        <route edges="749043950#2 -24806967 24806967 -749043950#2 -749043950#1 -448373420 24806974#2 24806974#3 24806974#4 24806974#5 131881144 24805591#2 37282390#0 37282390#1 37282390#2"/>
    </vehicle>
    <vehicle id="84" depart="28968.00">
        <route edges="25562607 -25562615 1119115695#0 1119115695#1 -25556723#2"/>
    </vehicle>
    <vehicle id="85" depart="28970.00">
        <route edges="1210159391#2 1454856698 11773018 25556721#0 25556721#1 25556721#2 785064311"/>
    </vehicle>
    <vehicle id="86" depart="28972.00">
        <route edges="-448373420 24806974#2 24806974#3 24806974#4 24806974#5 -25562615 1119115695#0 1119115695#1 1358218935 1035804759 1210159391#0 1210159391#1 1210159391#2 1454856698 11773018 25556721#0 25556721#1 25556721#2"/>
    </vehicle>
    <vehicle id="87" depart="28974.00">
        <route edges="1381694704#0 1381694704#1 1358218932#0"/>
    </vehicle>
    <vehicle id="88" depart="28976.00">
        <route edges="749043950#1 749043950#2 -24806967 24806967 -749043950#2 -749043950#1 -448373420 24806974#2 24806974#3 24806974#4 24806974#5 -25562615 1119115695#0 1119115695#1 1358218935 1035804759 1035804766 1358218934 837911243"/>
    </vehicle>
    <vehicle id="89" depart="28978.00">
        <route edges="-25556723#0 25562607 -24806974#5 -24806974#4 -24806974#3 -24806974#2 448373420 749043950#1 749043950#2 -24806967 24806967 -749043950#2"/>
    </vehicle>
    <vehicle id="90" depart="28980.00">
        <route edges="749043950#2 -24806967 24806967 -749043950#2 -749043950#1 -448373420 24806974#2 24806974#3 24806974#4 24806974#5 131881144 24805591#2 24805591#3"/>
    </vehicle>
    <vehicle id="91" depart="28982.00">
        <route edges="-24806974#2 24806974#2 24806974#3 24806974#4 24806974#5 131881144 24805591#2 24805591#3 24805591#4"/>
    </vehicle>
    <vehicle id="92" depart="28984.00">
        <route edges="228979748#2 228979748#3 25562609#1 1381694704#0 1381694704#1 25556723#0 25556723#1 25556723#2 1358218935 1035804759 1210159391#0 1210159391#1 1210159391#2 1454856698 25562600#1 25562603#0 25562603#1 25562603#2"/>
    </vehicle>
    <vehicle id="93" depart="28986.00">
        <route edges="-25556723#0 25562607 -24806974#5 -24806974#4 -24806974#3 -24806974#2 448373420 749043950#1"/>
    </vehicle>
    <vehicle id="94" depart="28988.00">
        <route edges="-24806974#4 -24806974#3 -24806974#2 24806974#2 24806974#3 24806974#4 24806974#5 -25562615 -25562603#2 -25562603#1 -25562603#0"/>
    </vehicle>
    <vehicle id="95" depart="28990.00">
        <route edges="24805912#0 228979748#3 25562609#1 1381694704#0 1381694704#1 25562607 -24806974#5 -24806974#4 -24806974#3 -24806974#2 24806974#2"/>
    </vehicle>
    <vehicle id="96" depart="28992.00">
        <route edges="-25562607 25556723#0 25556723#1 25556723#2 1358218935 1035804759 1035804766 1358218934 837911243 25556716#0 25556716#1 25556716#2 25556716#3 25556713#1 -25556713#1 -25556713#0 -25556716#2 -25556716#1"/>
    </vehicle>
    <vehicle id="97" depart="28994.00">
        <route edges="25562615 -25562607 1358218932#0 1358218932#1 -25562609#1"/>
    </vehicle>
    <vehicle id="98" depart="28996.00">
        <route edges="24805912#0 228979748#3 25562609#1 1381694704#0 24805591#1 24805591#2 24805591#3 24805591#4 24805591#5 24805591#6 24805591#7"/>
    </vehicle>
    <vehicle id="99" depart="28998.00">
        <route edges="1358218932#1 24805912#0 228979748#3 25562609#1 1381694704#0 24805591#1 24805591#2 24805591#3 24805591#4"/>
    </vehicle>
    <vehicle id="100" depart="29000.00">
        <route edges="24805591#1 24805591#2 37282390#0 37282390#1 37282390#2"/>
    </vehicle>
    <vehicle id="101" depart="29002.00">
        <route edges="-25562603#0 -25562600#1 25562600#1 25562603#0 25562603#1 25562603#2 1119115695#0 1119115695#1 1358218935 1035804759 1035804766 1358218934 837911243 25556716#0 25556716#1 25556716#2 25556716#3 25556713#1"/>
    </vehicle>
    <vehicle id="102" depart="29004.00">
        <route edges="-25562607 25556723#0 25556723#1 25556723#2 1358218935 1035804759 1210159391#0 1210159391#1"/>
    </vehicle>
    <vehicle id="103" depart="29006.00">
        <route edges="24806974#3 24806974#4 -24806974#4 -24806974#3 -24806974#2 448373420 749043950#1 749043950#2 -24806967 24806967 -749043950#2"/>
    </vehicle>
    <vehicle id="104" depart="29008.00">
        <route edges="1119115695#1 1358218935 1035804759 1035804766 1358218934 837911243 25556716#0 25556716#1 25556716#2"/>
    </vehicle>
    <vehicle id="105" depart="29010.00">
        <route edges="-24806974#3 -24806974#2 24806974#2 24806974#3 24806974#4 24806974#5 -25562615 1119115695#0 1119115695#1 1358218935"/>
    </vehicle>
    <vehicle id="106" depart="29012.00">
        <route edges="837911243"/>
    </vehicle>
    <vehicle id="107" depart="29014.00">
        <route edges="-24806974#3 -24806974#2 24806974#2 24806974#3 24806974#4 24806974#5 -25562615 -25562603#2"/>
    </vehicle>
    <vehicle id="108" depart="29016.00">
        <route edges="-448373420 24806974#2 24806974#3 24806974#4 24806974#5 131881144 24805591#2 37282390#0 37282390#1 37282390#2"/>
    </vehicle>
    <vehicle id="109" depart="29018.00">
        <route edges="25562615 -25562607 1358218932#0 1358218932#1 24805912#0 228979748#3 25562609#1"/>
    </vehicle>
    <vehicle id="110" depart="29020.00">
        <route edges="1210159391#1 1210159391#2 1454856698 25562600#1 25562603#0 25562603#1 25562603#2 1119115695#0 1119115695#1 -25556723#2 -25556723#1"/>
    </vehicle>
    <vehicle id="111" depart="29022.00">
        <route edges="25562603#1 25562603#2 25562615 -24806974#5 24806974#5"/>
    </vehicle>
    <vehicle id="112" depart="29024.00">
        <route edges="24806974#2 24806974#3 24806974#4 24806974#5 -25562607 25556723#0 25556723#1 25556723#2 -1119115695#1 -1119115695#0"/>
    </vehicle>
    <vehicle id="113" depart="29026.00">
        <route edges="25562603#0 25562603#1 25562603#2 25562615 -24806974#5 -24806974#4 -24806974#3 -24806974#2 448373420 749043950#1 749043950#2 -24806967 24806967 -749043950#2"/>
    </vehicle>
    <vehicle id="114" depart="29028.00">
        <route edges="24806974#3 24806974#4 24806974#5 131881144 24805591#2 37282390#0 37282390#1 37282390#2 37282390#3"/>
    </vehicle>
    <vehicle id="115" depart="29030.00">
        <route edges="-25556716#1 -25556716#0"/>
    </vehicle>
    <vehicle id="116" depart="29032.00">
        <route edges="-25556713#0 -25556716#2 -25556716#1 -25556716#0 1035804763 1061694136#0 1358218933 -25556723#2 -25556723#1 -25556723#0 1358218932#0 24805591#1"/>
    </vehicle>
    <vehicle id="117" depart="29034.00">
        <route edges="-749043950#1 -448373420 24806974#2 24806974#3 24806974#4 24806974#5 131881144 24805591#2 24805591#3 24805591#4 24805591#5 24805591#6"/>
    </vehicle>
    <vehicle id="118" depart="29036.00">
        <route edges="25556716#2 25556716#3 25556713#1 -25556713#1 -25556713#0 -25556716#2 -25556716#1 -25556716#0 1035804763 1061694136#0 1358218933 -1119115695#1 -1119115695#0 -25562603#2 -25562603#1"/>
    </vehicle>
    <vehicle id="119" depart="29038.00">
        <route edges="24806974#0 24806974#1 448373420 -448373420"/>
    </vehicle>
    <vehicle id="120" depart="29040.00">
        <route edges="25562603#2 25562615 -24806974#5"/>
    </vehicle>
    <vehicle id="121" depart="29042.00">
        <route edges="1358218932#1 24805912#0 228979748#3 25562609#1 1381694704#0 1381694704#1 25562607 -24806974#5 -24806974#4 -24806974#3 -24806974#2 448373420 -749043950#0"/>
    </vehicle>
    <vehicle id="122" depart="29044.00">
        <route edges="-1119115695#0 -25562603#2 -25562603#1 -25562603#0 -25562600#1 11773018 25556721#0 25556721#1"/>
    </vehicle>
    <vehicle id="123" depart="29046.00">
        <route edges="24806974#0 24806974#1 448373420 -448373420"/>
    </vehicle>
    <vehicle id="124" depart="29048.00">
        <route edges="25556721#0 25556721#1 25556721#2 1210159390#0 1210159390#1 1358218934 904774625 1061694136#0 1358218933 -25556723#2 -25556723#1 -25556723#0 1358218932#0 24805591#1"/>
    </vehicle>
    <vehicle id="125" depart="29050.00">
        <route edges="1358218933 -1119115695#1 -1119115695#0"/>
    </vehicle>
    <vehicle id="126" depart="29052.00">
        <route edges="-24806974#3 -24806974#2 24806974#2 24806974#3 24806974#4 24806974#5 -25562615 25562615"/>
    </vehicle>
    <vehicle id="127" depart="29054.00">
        <route edges="25562603#1 25562603#2 25562615 131881144 24805591#2 24805591#3 24805591#4"/>
    </vehicle>
    <vehicle id="128" depart="29056.00">
        <route edges="-25556716#2 -25556716#1"/>
    </vehicle>
    <vehicle id="129" depart="29058.00">
        <route edges="25556723#2 1358218935 1035804759 1035804766 1358218934 904774625 1061694136#0 1358218933 -25556723#2 -25556723#1 -25556723#0 25562607"/>
    </vehicle>
    <vehicle id="130" depart="29060.00">
        <route edges="-25562609#1 25562609#1 1381694704#0 1381694704#1 25556723#0 25556723#1 25556723#2 1358218935 1035804759 1035804766 1358218934 837911243 25556716#0 25556716#1 25556716#2 25556716#3 25556713#1 -25556713#1 -25556713#0"/>
    </vehicle>
    <vehicle id="131" depart="29062.00">
        <route edges="25556723#0 25556723#1 25556723#2 -1119115695#1 -1119115695#0 25562615"/>
    </vehicle>
    <vehicle id="132" depart="29064.00">
        <route edges="1358218932#0 24805591#1 24805591#2 24805591#3 24805591#4 24805591#5 24805591#6 24805591#7"/>
    </vehicle>
    <vehicle id="133" depart="29066.00">
        <route edges="-25556723#0 1358218932#0 24805591#1 24805591#2 37282390#0 37282390#1 37282390#2"/>
    </vehicle>
    <vehicle id="134" depart="29068.00">
        <route edges="25562609#0 25562609#1 1381694704#0 1381694704#1 25562607 -24806974#5 -24806974#4 -24806974#3 -24806974#2 448373420 749043950#1 749043950#2"/>
    </vehicle>
    <vehicle id="135" depart="29070.00">
        <route edges="25562600#1 25562603#0 25562603#1 25562603#2 1119115695#0 1119115695#1 -25556723#2 -25556723#1 -25556723#0 1358218932#0 1358218932#1 24805912#0 228979748#3 25562609#1"/>
    </vehicle>
    <vehicle id="136" depart="29072.00">
        <route edges="-1119196153 25556721#2 1210159390#0 1210159390#1 1358218934 837911243 25556716#0 25556716#1"/>
    </vehicle>
    <vehicle id="137" depart="29074.00">
        <route edges="1210159390#0 1210159390#1 1358218934 904774625 1061694136#0 1358218933 -25556723#2 -25556723#1 -25556723#0 1358218932#0 24805591#1 24805591#2 37282390#0 37282390#1 37282390#2"/>
    </vehicle>
    <vehicle id="138" depart="29076.00">
        <route edges="25556723#2 1358218935 1035804759 1035804766 1358218934 904774625 1061694136#0 1358218933 -25556723#2 -25556723#1 -25556723#0 25562607"/>
    </vehicle>
    <vehicle id="139" depart="29078.00">
        <route edges="25562600#1 25562603#0 25562603#1 25562603#2 25562615 -24806974#5 -24806974#4 -24806974#3 -24806974#2 448373420 -448373420"/>
    </vehicle>
    <vehicle id="140" depart="29080.00">
        <route edges="25556723#1 25556723#2 1358218935 1035804759 1035804766 1358218934 837911243 25556716#0 25556716#1 25556716#2 25556716#3 25556713#1 -25556713#1 -25556713#0 -25556716#2 -25556716#1 -25556716#0"/>
    </vehicle>
    <vehicle id="141" depart="29082.00">