<?xml version="1.0" encoding="UTF-8"?>

<!-- generated on 2026-04-30 16:23:39.632346 by randomTrips.py v1_24_0+0000-b72eb3fabc8
<configuration>
    <net-file value="simulation/taksim/taksim.net.xml"/>
    <output-trip-file value="simulation/taksim/taksim_trips.xml"/>
    <route-file value="simulation/taksim/taksim_routes.rou.xml"/>
    <begin value="28800.0"/>
    <end value="36000.0"/>
    <period value="2.0"/>
</configuration>
-->

<routes xmlns:xsi="http://www.w3.org/2001/XMLSchema-instance" xsi:noNamespaceSchemaLocation="http://sumo.dlr.de/xsd/routes_file.xsd">
    <trip id="0" depart="28800.00" from="24806974#0" to="-24806967"/>
    <trip id="1" depart="28802.00" from="-749043950#1" to="-25562607"/>
    <trip id="2" depart="28804.00" from="25556716#3" to="24806974#2"/>
    <trip id="3" depart="28806.00" from="1358218932#1" to="-24806967"/>
    <trip id="4" depart="28808.00" from="-1119196153" to="-25562603#1"/>
    <trip id="5" depart="28810.00" from="24806974#1" to="228979748#3"/>
    <trip id="6" depart="28812.00" from="-25562603#2" to="24805591#4"/>
    <trip id="7" depart="28814.00" from="25562600#1" to="-1119115695#0"/>
    <trip id="8" depart="28816.00" from="25562600#1" to="24806974#4"/>
    <trip id="9" depart="28818.00" from="1210159390#1" to="-25556723#1"/>
    <trip id="10" depart="28820.00" from="749043950#1" to="1119196153"/>
    <trip id="11" depart="28822.00" from="-24806974#5" to="-24806974#5"/>
    <trip id="12" depart="28824.00" from="25562603#2" to="24805591#6"/>
    <trip id="13" depart="28826.00" from="25562600#1" to="25556716#0"/>
    <trip id="14" depart="28828.00" from="1210159391#2" to="24805591#1"/>
    <trip id="15" depart="28830.00" from="25562603#1" to="24805591#7"/>
    <trip id="16" depart="28832.00" from="25562609#0" to="24805591#3"/>
    <trip id="17" depart="28834.00" from="25556716#0" to="-24806974#1"/>
    <trip id="18" depart="28836.00" from="-25562603#2" to="-749043950#1"/>
    <trip id="19" depart="28838.00" from="-24806974#4" to="-25562609#0"/>
    <trip id="20" depart="28840.00" from="-25556713#0" to="-749043950#0"/>
    <trip id="21" depart="28842.00" from="24806974#0" to="1210159390#0"/>
    <trip id="22" depart="28844.00" from="1210159391#2" to="-25562603#2"/>
    <trip id="23" depart="28846.00" from="-448373420" to="37282390#3"/>
    <trip id="24" depart="28848.00" from="24806974#1" to="24805591#6"/>
    <trip id="25" depart="28850.00" from="-25556723#1" to="25556716#0"/>
    <trip id="26" depart="28852.00" from="-25556723#1" to="1210159391#0"/>
    <trip id="27" depart="28854.00" from="837911243" to="24805912#1"/>
    <trip id="28" depart="28856.00" from="25562603#2" to="25556721#2"/>
    <trip id="29" depart="28858.00" from="-25562607" to="-24806967"/>
    <trip id="30" depart="28860.00" from="1119115695#1" to="-448373420"/>
    <trip id="31" depart="28862.00" from="-25562603#1" to="37282390#3"/>
    <trip id="32" depart="28864.00" from="25562609#1" to="1119115695#0"/>
    <trip id="33" depart="28866.00" from="24806974#2" to="1210159391#1"/>
    <trip id="34" depart="28868.00" from="-448373420" to="-25562609#1"/>
    <trip id="35" depart="28870.00" from="-24806974#5" to="-24806974#1"/>
    <trip id="36" depart="28872.00" from="-25556713#1" to="24805912#0"/>
    <trip id="37" depart="28874.00" from="25556723#1" to="1358218932#0"/>
    <trip id="38" depart="28876.00" from="-24806974#2" to="1210159391#0"/>
    <trip id="39" depart="28878.00" from="749043950#2" to="25562607"/>
    <trip id="40" depart="28880.00" from="-1119115695#1" to="25556716#0"/>
    <trip id="41" depart="28882.00" from="-448373420" to="24805912#1"/>
    <trip id="42" depart="28884.00" from="-25556713#1" to="1358218932#1"/>
    <trip id="43" depart="28886.00" from="1381694704#0" to="448373420"/>
    <trip id="44" depart="28888.00" from="25562609#1" to="-448373420"/>
    <trip id="45" depart="28890.00" from="228979748#2" to="-25562600#1"/>
    <trip id="46" depart="28892.00" from="1035804763" to="24805912#1"/>
    <trip id="47" depart="28894.00" from="25556721#2" to="228979748#3"/>
    <trip id="48" depart="28896.00" from="-1119115695#0" to="1119115695#1"/>
    <trip id="49" depart="28898.00" from="-1119115695#1" to="37282390#2"/>
    <trip id="50" depart="28900.00" from="25562609#1" to="25562603#0"/>
    <trip id="51" depart="28902.00" from="1119115695#0" to="-24806974#2"/>
    <trip id="52" depart="28904.00" from="25562609#1" to="448373420"/>
    <trip id="53" depart="28906.00" from="-24806974#4" to="1454856698"/>
    <trip id="54" depart="28908.00" from="-24806974#3" to="25556716#3"/>
    <trip id="55" depart="28910.00" from="25556721#2" to="-25556716#1"/>
    <trip id="56" depart="28912.00" from="1454856698" to="24805591#1"/>
    <trip id="57" depart="28914.00" from="-448373420" to="25562609#1"/>
    <trip id="58" depart="28916.00" from="1358218932#1" to="-25562603#2"/>
    <trip id="59" depart="28918.00" from="-25562603#0" to="1035804763"/>
    <trip id="60" depart="28920.00" from="1358218935" to="183827665"/>
    <trip id="61" depart="28922.00" from="-25556716#0" to="-25562607"/>
    <trip id="62" depart="28924.00" from="1210159390#1" to="24805591#4"/>
    <trip id="63" depart="28926.00" from="-25562607" to="-25562607"/>
    <trip id="64" depart="28928.00" from="-24806974#3" to="24805912#0"/>
    <trip id="65" depart="28930.00" from="-25562607" to="37282390#0"/>
    <trip id="66" depart="28932.00" from="25562609#0" to="-24806974#3"/>
    <trip id="67" depart="28934.00" from="-25562607" to="24806974#2"/>
    <trip id="68" depart="28936.00" from="-25562603#1" to="-25556716#2"/>
    <trip id="69" depart="28938.00" from="448373420" to="24805591#3"/>
    <trip id="70" depart="28940.00" from="1454856698" to="25556721#2"/>
    <trip id="71" depart="28942.00" from="25562600#1" to="-25562603#0"/>
    <trip id="72" depart="28944.00" from="-24806974#5" to="1358218932#1"/>
    <trip id="73" depart="28946.00" from="1358218932#1" to="1381694704#0"/>
    <trip id="74" depart="28948.00" from="25556716#3" to="24806974#2"/>
    <trip id="75" depart="28950.00" from="785064311" to="-25556713#0"/>
    <trip id="76" depart="28952.00" from="1358218932#0" to="1119196153"/>
    <trip id="77" depart="28954.00" from="25562609#0" to="-25562615"/>
    <trip id="78" depart="28956.00" from="-25562600#1" to="1358218933"/>
    <trip id="79" depart="28958.00" from="1358218932#1" to="-749043950#0"/>
    <trip id="80" depart="28960.00" from="-25562609#1" to="37282390#1"/>
    <trip id="81" depart="28962.00" from="1358218935" to="25562607"/>
    <trip id="82" depart="28964.00" from="837911243" to="25562603#0"/>
    <trip id="83" depart="28966.00" from="749043950#2" to="37282390#2"/>
    <trip id="84" depart="28968.00" from="25562607" to="-25556723#2"/>
    <trip id="85" depart="28970.00" from="1210159391#2" to="785064311"/>
    <trip id="86" depart="28972.00" from="-448373420" to="25556721#2"/>
    <trip id="87" depart="28974.00" from="1381694704#0" to="1358218932#0"/>
    <trip id="88" depart="28976.00" from="749043950#1" to="837911243"/>
    <trip id="89" depart="28978.00" from="-25556723#0" to="-749043950#2"/>
    <trip id="90" depart="28980.00" from="749043950#2" to="24805591#3"/>
    <trip id="91" depart="28982.00" from="-24806974#2" to="24805591#4"/>
    <trip id="92" depart="28984.00" from="228979748#2" to="25562603#2"/>
    <trip id="93" depart="28986.00" from="-25556723#0" to="749043950#1"/>
    <trip id="94" depart="28988.00" from="-24806974#4" to="-25562603#0"/>
    <trip id="95" depart="28990.00" from="24805912#0" to="24806974#2"/>
    <trip id="96" depart="28992.00" from="-25562607" to="-25556716#1"/>
    <trip id="97" depart="28994.00" from="25562615" to="-25562609#1"/>
    <trip id="98" depart="28996.00" from="24805912#0" to="24805591#7"/>
    <trip id="99" depart="28998.00" from="1358218932#1" to="24805591#4"/>
    <trip id="100" depart="29000.00" from="24805591#1" to="37282390#2"/>
    <trip id="101" depart="29002.00" from="-25562603#0" to="25556713#1"/>
    <trip id="102" depart="29004.00" from="-25562607" to="1210159391#1"/>
    <trip id="103" depart="29006.00" from="24806974#3" to="-749043950#2"/>
    <trip id="104" depart="29008.00" from="1119115695#1" to="25556716#2"/>
    <trip id="105" depart="29010.00" from="-24806974#3" to="1358218935"/>
    <trip id="106" depart="29012.00" from="837911243" to="837911243"/>
    <trip id="107" depart="29014.00" from="-24806974#3" to="-25562603#2"/>
    <trip id="108" depart="29016.00" from="-448373420" to="37282390#2"/>
    <trip id="109" depart="29018.00" from="25562615" to="25562609#1"/>
    <trip id="110" depart="29020.00" from="1210159391#1" to="-25556723#1"/>
    <trip id="111" depart="29022.00" from="25562603#1" to="24806974#5"/>
    <trip id="112" depart="29024.00" from="24806974#2" to="-1119115695#0"/>
    <trip id="113" depart="29026.00" from="25562603#0" to="-749043950#2"/>
    <trip id="114" depart="29028.00" from="24806974#3" to="37282390#3"/>
    <trip id="115" depart="29030.00" from="-25556716#1" to="-25556716#0"/>
    <trip id="116" depart="29032.00" from="-25556713#0" to="24805591#1"/>
    <trip id="117" depart="29034.00" from="-749043950#1" to="24805591#6"/>
    <trip id="118" depart="29036.00" from="25556716#2" to="-25562603#1"/>
    <trip id="119" depart="29038.00" from="24806974#0" to="-448373420"/>
    <trip id="120" depart="29040.00" from="25562603#2" to="-24806974#5"/>
    <trip id="121" depart="29042.00" from="1358218932#1" to="-749043950#0"/>
    <trip id="122" depart="29044.00" from="-1119115695#0" to="25556721#1"/>
    <trip id="123" depart="29046.00" from="24806974#0" to="-448373420"/>
    <trip id="124" depart="29048.00" from="25556721#0" to="24805591#1"/>
    <trip id="125" depart="29050.00" from="1358218933" to="-1119115695#0"/>
    <trip id="126" depart="29052.00" from="-24806974#3" to="25562615"/>
    <trip id="127" depart="29054.00" from="25562603#1" to="24805591#4"/>
    <trip id="128" depart="29056.00" from="-25556716#2" to="-25556716#1"/>
    <trip id="129" depart="29058.00" from="25556723#2" to="25562607"/>
    <trip id="130" depart="29060.00" from="-25562609#1" to="-25556713#0"/>
    <trip id="131" depart="29062.00" from="25556723#0" to="25562615"/>
    <trip id="132" depart="29064.00" from="1358218932#0" to="24805591#7"/>
    <trip id="133" depart="29066.00" from="-25556723#0" to="37282390#2"/>
    <trip id="134" depart="29068.00" from="25562609#0" to="749043950#2"/>
    <trip id="135" depart="29070.00" from="25562600#1" to="25562609#1"/>
    <trip id="136" depart="29072.00" from="-1119196153" to="25556716#1"/>
    <trip id="137" depart="29074.00" from="1210159390#0" to="37282390#2"/>
    <trip id="138" depart="29076.00" from="25556723#2" to="25562607"/>
    <trip id="139" depart="29078.00" from="25562600#1" to="-448373420"/>
    <trip id="140" depart="29080.00" from="25556723#1" to="-25556716#0"/>
    <trip id="141" depart="29082.00" from="25562609#1" to="25562603#2"/>
    <trip id="142" depart="29084.00" from="-25562603#2" to="25556723#2"/>
    <trip id="143" depart="29086.00" from="1381694704#1" to="1035804763"/>
    <trip id="144" depart="29088.00" from="25556723#2" to="-25562609#0"/>
    <trip id="145" depart="29090.00" from="-1119196153" to="-25562603#0"/>
    <trip id="146" depart="29092.00" from="1210159390#0" to="25562607"/>
    <trip id="147" depart="29094.00" from="749043950#1" to="-749043950#0"/>
    <trip id="148" depart="29096.00" from="24806974#1" to="1210159391#2"/>
    <trip id="149" depart="29098.00" from="448373420" to="-25556716#0"/>
    <trip id="150" depart="29100.00" from="749043950#2" to="-25562600#1"/>
    <trip id="151" depart="29102.00" from="749043950#1" to="-448373420"/>
    <trip id="152" depart="29104.00" from="-25556713#0" to="1358218932#1"/>
    <trip id="153" depart="29106.00" from="25556716#3" to="1119115695#0"/>
    <trip id="154" depart="29108.00" from="-25562615" to="24806974#5"/>
    <trip id="155" depart="29110.00" from="-1119115695#0" to="37282390#2"/>
    <trip id="156" depart="29112.00" from="25556721#0" to="24806974#2"/>
    <trip id="157" depart="29114.00" from="1210159391#1" to="-24806974#3"/>
    <trip id="158" depart="29116.00" from="24806974#3" to="1119115695#1"/>
    <trip id="159" depart="29118.00" from="1119115695#0" to="25562603#1"/>
    <trip id="160" depart="29120.00" from="25556716#2" to="-749043950#2"/>
    <trip id="161" depart="29122.00" from="1119115695#0" to="1210159391#2"/>
    <trip id="162" depart="29124.00" from="1358218932#0" to="-749043950#2"/>
    <trip id="163" depart="29126.00" from="-25556716#0" to="1358218932#0"/>
    <trip id="164" depart="29128.00" from="448373420" to="24806974#2"/>
    <trip id="165" depart="29130.00" from="1035804763" to="228979748#3"/>
    <trip id="166" depart="29132.00" from="-1119115695#0" to="-749043950#1"/>
    <trip id="167" depart="29134.00" from="1358218933" to="24805591#3"/>
    <trip id="168" depart="29136.00" from="24806974#2" to="1381694704#0"/>
    <trip id="169" depart="29138.00" from="1358218935" to="-25562603#2"/>
    <trip id="170" depart="29140.00" from="25556723#2" to="-25556723#2"/>
    <trip id="171" depart="29142.00" from="24806974#0" to="1119196153"/>
    <trip id="172" depart="29144.00" from="25562603#0" to="25556716#2"/>
    <trip id="173" depart="29146.00" from="24806974#3" to="-25562607"/>
    <trip id="174" depart="29148.00" from="-25562603#0" to="-24806967"/>
    <trip id="175" depart="29150.00" from="-25562609#1" to="1381694704#1"/>
    <trip id="176" depart="29152.00" from="25562607" to="-24806974#3"/>
    <trip id="177" depart="29154.00" from="1358218932#1" to="24805912#0"/>
    <trip id="178" depart="29156.00" from="-25562600#1" to="24806974#4"/>
    <trip id="179" depart="29158.00" from="228979748#1" to="-25562609#1"/>
    <trip id="180" depart="29160.00" from="24806974#2" to="-1119115695#0"/>
    <trip id="181" depart="29162.00" from="25556721#1" to="25556721#1"/>
    <trip id="182" depart="29164.00" from="-25556713#0" to="1358218932#0"/>
    <trip id="183" depart="29166.00" from="-25556723#2" to="749043950#1"/>
    <trip id="184" depart="29168.00" from="228979748#3" to="-24806974#1"/>
    <trip id="185" depart="29170.00" from="-25562609#1" to="25562603#1"/>
    <trip id="186" depart="29172.00" from="1381694704#0" to="25556723#1"/>
    <trip id="187" depart="29174.00" from="24806974#3" to="785064311"/>
    <trip id="188" depart="29176.00" from="24805912#0" to="448373420"/>
    <trip id="189" depart="29178.00" from="25562603#1" to="228979748#3"/>
    <trip id="190" depart="29180.00" from="1454856698" to="-448373420"/>
    <trip id="191" depart="29182.00" from="-25562609#1" to="24805912#1"/>
    <trip id="192" depart="29184.00" from="25556721#2" to="183827665"/>
    <trip id="193" depart="29186.00" from="24806967" to="-749043950#0"/>
    <trip id="194" depart="29188.00" from="-24806974#4" to="-749043950#1"/>
    <trip id="195" depart="29190.00" from="-448373420" to="1119115695#0"/>
    <trip id="196" depart="29192.00" from="-25562607" to="24806974#4"/>
    <trip id="197" depart="29194.00" from="25556716#0" to="-24806974#2"/>
    <trip id="198" depart="29196.00" from="1358218932#0" to="228979748#3"/>
    <trip id="199" depart="29198.00" from="1358218932#1" to="-25562603#2"/>
    <trip id="200" depart="29200.00" from="1358218932#1" to="37282390#0"/>
    <trip id="201" depart="29202.00" from="25562607" to="25556721#1"/>
    <trip id="202" depart="29204.00" from="1210159391#2" to="-1119115695#0"/>
    <trip id="203" depart="29206.00" from="1210159391#0" to="25556716#3"/>
    <trip id="204" depart="29208.00" from="25562607" to="448373420"/>
    <trip id="205" depart="29210.00" from="1358218932#1" to="25556716#2"/>
    <trip id="206" depart="29212.00" from="24805591#3" to="24805591#6"/>
    <trip id="207" depart="29214.00" from="-25562603#2" to="-25562607"/>
    <trip id="208" depart="29216.00" from="1358218935" to="-24806967"/>
    <trip id="209" depart="29218.00" from="1210159390#0" to="24806974#3"/>
    <trip id="210" depart="29220.00" from="1358218932#0" to="-25556723#2"/>
    <trip id="211" depart="29222.00" from="1381694704#1" to="-25556716#1"/>
    <trip id="212" depart="29224.00" from="24806967" to="-24806967"/>
    <trip id="213" depart="29226.00" from="131881144" to="24805591#2"/>
    <trip id="214" depart="29228.00" from="-1119196153" to="24805912#1"/>
    <trip id="215" depart="29230.00" from="-25556716#1" to="1358218935"/>
    <trip id="216" depart="29232.00" from="-24806974#1" to="1210159391#0"/>
    <trip id="217" depart="29234.00" from="-25562603#1" to="1119115695#1"/>
    <trip id="218" depart="29236.00" from="25556721#2" to="1210159391#0"/>
    <trip id="219" depart="29238.00" from="25556721#1" to="25562603#0"/>
    <trip id="220" depart="29240.00" from="-25562615" to="-24806974#4"/>
    <trip id="221" depart="29242.00" from="-1119115695#1" to="228979748#3"/>
    <trip id="222" depart="29244.00" from="837911243" to="11773018"/>
    <trip id="223" depart="29246.00" from="24806974#1" to="25556721#2"/>
    <trip id="224" depart="29248.00" from="24806974#1" to="25556716#3"/>
    <trip id="225" depart="29250.00" from="749043950#0" to="-25562603#1"/>
    <trip id="226" depart="29252.00" from="-1119115695#1" to="-25556723#1"/>
    <trip id="227" depart="29254.00" from="-25556716#0" to="24806974#2"/>
    <trip id="228" depart="29256.00" from="25556716#0" to="25556721#1"/>
    <trip id="229" depart="29258.00" from="-25556723#1" to="24805591#6"/>
    <trip id="230" depart="29260.00" from="25556721#0" to="-25556716#0"/>
    <trip id="231" depart="29262.00" from="25562603#0" to="749043950#1"/>
    <trip id="232" depart="29264.00" from="-25556713#0" to="-24806967"/>
    <trip id="233" depart="29266.00" from="1119115695#0" to="24806974#2"/>
    <trip id="234" depart="29268.00" from="749043950#1" to="1210159391#1"/>
    <trip id="235" depart="29270.00" from="25556716#1" to="-24806974#4"/>
    <trip id="236" depart="29272.00" from="24806974#5" to="24805912#0"/>
    <trip id="237" depart="29274.00" from="-25556713#0" to="25556721#1"/>
    <trip id="238" depart="29276.00" from="25562607" to="24805591#5"/>
    <trip id="239" depart="29278.00" from="-25556716#0" to="785064311"/>
    <trip id="240" depart="29280.00" from="25556723#1" to="11773018"/>
    <trip id="241" depart="29282.00" from="1358218933" to="1210159390#1"/>
    <trip id="242" depart="29284.00" from="228979748#2" to="1119196153"/>
    <trip id="243" depart="29286.00" from="25562607" to="25562600#1"/>
    <trip id="244" depart="29288.00" from="-25556713#0" to="749043950#1"/>
    <trip id="245" depart="29290.00" from="24806974#0" to="25562603#0"/>
    <trip id="246" depart="29292.00" from="25556716#1" to="1358218932#1"/>
    <trip id="247" depart="29294.00" from="25556716#3" to="749043950#1"/>
    <trip id="248" depart="29296.00" from="-448373420" to="25556723#2"/>
    <trip id="249" depart="29298.00" from="1358218935" to="25556716#0"/>
    <trip id="250" depart="29300.00" from="-448373420" to="25562603#2"/>
    <trip id="251" depart="29302.00" from="25562603#1" to="-24806974#5"/>
    <trip id="252" depart="29304.00" from="25562615" to="-25562609#1"/>
    <trip id="253" depart="29306.00" from="1381694704#1" to="24805591#6"/>
    <trip id="254" depart="29308.00" from="1210159391#2" to="-24806967"/>
    <trip id="255" depart="29310.00" from="25562607" to="-25562600#1"/>
    <trip id="256" depart="29312.00" from="-25562603#1" to="25556723#1"/>
    <trip id="257" depart="29314.00" from="1210159390#1" to="25562609#1"/>
    <trip id="258" depart="29316.00" from="25556716#0" to="-749043950#0"/>
    <trip id="259" depart="29318.00" from="-1119115695#0" to="448373420"/>
    <trip id="260" depart="29320.00" from="-24806974#4" to="25556713#1"/>
    <trip id="261" depart="29322.00" from="228979748#1" to="25556723#0"/>
    <trip id="262" depart="29324.00" from="-24806974#5" to="-25562607"/>
    <trip id="263" depart="29326.00" from="24806974#5" to="1035804763"/>
    <trip id="264" depart="29328.00" from="25556721#0" to="1119115695#1"/>
    <trip id="265" depart="29330.00" from="25556716#0" to="-749043950#0"/>
    <trip id="266" depart="29332.00" from="-25562615" to="-25556716#1"/>
    <trip id="267" depart="29334.00" from="-25562600#1" to="-25556716#1"/>
    <trip id="268" depart="29336.00" from="-25562600#1" to="-25562607"/>
    <trip id="269" depart="29338.00" from="749043950#2" to="183827665"/>
    <trip id="270" depart="29340.00" from="-749043950#2" to="-25556713#0"/>
    <trip id="271" depart="29342.00" from="-25562600#1" to="-25562609#0"/>
    <trip id="272" depart="29344.00" from="-25556723#2" to="-1119115695#1"/>
    <trip id="273" depart="29346.00" from="749043950#2" to="24805591#1"/>
    <trip id="274" depart="29348.00" from="25556716#0" to="-25556716#1"/>
    <trip id="275" depart="29350.00" from="25562609#0" to="1454856698"/>
    <trip id="276" depart="29352.00" from="25562609#1" to="24805591#3"/>
    <trip id="277" depart="29354.00" from="1454856698" to="1358218932#1"/>
    <trip id="278" depart="29356.00" from="-25556723#2" to="-24806974#1"/>
    <trip id="279" depart="29358.00" from="448373420" to="1381694704#1"/>
    <trip id="280" depart="29360.00" from="25562603#0" to="1210159391#2"/>
    <trip id="281" depart="29362.00" from="-24806974#3" to="24805912#0"/>
    <trip id="282" depart="29364.00" from="-24806974#1" to="-25556723#0"/>
    <trip id="283" depart="29366.00" from="837911243" to="-25556716#1"/>
    <trip id="284" depart="29368.00" from="25556721#2" to="24805591#6"/>
    <trip id="285" depart="29370.00" from="25556723#1" to="-25562607"/>
    <trip id="286" depart="29372.00" from="1358218935" to="25562603#2"/>
    <trip id="287" depart="29374.00" from="837911243" to="1035804763"/>
    <trip id="288" depart="29376.00" from="24806967" to="24805591#6"/>
    <trip id="289" depart="29378.00" from="25556721#0" to="448373420"/>
    <trip id="290" depart="29380.00" from="-25562603#1" to="-25562603#2"/>
    <trip id="291" depart="29382.00" from="24806974#2" to="-25556723#1"/>
    <trip id="292" depart="29384.00" from="-25556723#1" to="-24806974#3"/>
    <trip id="293" depart="29386.00" from="-1119115695#0" to="1358218933"/>
    <trip id="294" depart="29388.00" from="24805912#0" to="-749043950#2"/>
    <trip id="295" depart="29390.00" from="-25562607" to="24806974#5"/>
    <trip id="296" depart="29392.00" from="25556716#0" to="1358218935"/>
    <trip id="297" depart="29394.00" from="24806974#5" to="37282390#1"/>
    <trip id="298" depart="29396.00" from="25556723#1" to="24805912#0"/>
    <trip id="299" depart="29398.00" from="24806974#2" to="37282390#2"/>
    <trip id="300" depart="29400.00" from="1358218933" to="228979748#3"/>
    <trip id="301" depart="29402.00" from="24806974#1" to="37282390#0"/>
    <trip id="302" depart="29404.00" from="25562603#1" to="-24806974#3"/>
    <trip id="303" depart="29406.00" from="-25556723#1" to="1035804763"/>
    <trip id="304" depart="29408.00" from="25556721#0" to="24805591#2"/>
    <trip id="305" depart="29410.00" from="-749043950#2" to="-25556716#1"/>
    <trip id="306" depart="29412.00" from="24806974#5" to="24806974#5"/>
    <trip id="307" depart="29414.00" from="228979748#1" to="-24806974#4"/>
    <trip id="308" depart="29416.00" from="-183827665" to="1358218932#1"/>
    <trip id="309" depart="29418.00" from="1119115695#1" to="-25562615"/>
    <trip id="310" depart="29420.00" from="-24806974#5" to="749043950#1"/>
    <trip id="311" depart="29422.00" from="25562603#1" to="24805591#3"/>
    <trip id="312" depart="29424.00" from="749043950#0" to="837911243"/>
    <trip id="313" depart="29426.00" from="24806974#3" to="-749043950#0"/>
    <trip id="314" depart="29428.00" from="-183827665" to="25556716#3"/>
    <trip id="315" depart="29430.00" from="228979748#1" to="-24806974#5"/>
    <trip id="316" depart="29432.00" from="1210159391#0" to="1119115695#1"/>
    <trip id="317" depart="29434.00" from="24806974#3" to="25562603#2"/>
    <trip id="318" depart="29436.00" from="1210159390#0" to="24806974#4"/>
    <trip id="319" depart="29438.00" from="-749043950#2" to="37282390#3"/>
    <trip id="320" depart="29440.00" from="25562600#1" to="24805591#1"/>
    <trip id="321" depart="29442.00" from="1381694704#0" to="1119115695#0"/>
    <trip id="322" depart="29444.00" from="1119115695#1" to="749043950#2"/>
    <trip id="323" depart="29446.00" from="785064311" to="24806974#1"/>
    <trip id="324" depart="29448.00" from="-25562600#1" to="1210159390#0"/>
    <trip id="325" depart="29450.00" from="25556721#1" to="24805912#0"/>
    <trip id="326" depart="29452.00" from="25556721#1" to="-25562603#1"/>
    <trip id="327" depart="29454.00" from="1358218935" to="24806974#4"/>
    <trip id="328" depart="29456.00" from="-25556716#0" to="749043950#2"/>
    <trip id="329" depart="29458.00" from="-25556723#0" to="24805591#1"/>
    <trip id="330" depart="29460.00" from="837911243" to="37282390#0"/>
    <trip id="331" depart="29462.00" from="1381694704#1" to="-25556716#0"/>
    <trip id="332" depart="29464.00" from="-749043950#1" to="25562603#0"/>
    <trip id="333" depart="29466.00" from="785064311" to="-25562609#1"/>
    <trip id="334" depart="29468.00" from="25562609#1" to="25562607"/>
    <trip id="335" depart="29470.00" from="-749043950#1" to="25556723#0"/>
    <trip id="336" depart="29472.00" from="1358218932#1" to="37282390#2"/>
    <trip id="337" depart="29474.00" from="228979748#2" to="25562600#1"/>
    <trip id="338" depart="29476.00" from="-749043950#2" to="-749043950#2"/>
    <trip id="339" depart="29478.00" from="228979748#1" to="-25556723#0"/>
    <trip id="340" depart="29480.00" from="1381694704#0" to="1119115695#0"/>
    <trip id="341" depart="29482.00" from="-25562600#1" to="24806974#4"/>
    <trip id="342" depart="29484.00" from="25556723#0" to="-24806974#1"/>
    <trip id="343" depart="29486.00" from="25556721#0" to="24806974#5"/>
    <trip id="344" depart="29488.00" from="25562600#1" to="1210159391#0"/>
    <trip id="345" depart="29490.00" from="24806974#3" to="25562600#1"/>
    <trip id="346" depart="29492.00" from="24805912#0" to="25562607"/>
    <trip id="347" depart="29494.00" from="25562609#1" to="1358218932#1"/>
    <trip id="348" depart="29496.00" from="25556716#2" to="131881144"/>
    <trip id="349" depart="29498.00" from="24806974#2" to="-25556723#1"/>
    <trip id="350" depart="29500.00" from="1454856698" to="749043950#2"/>
    <trip id="351" depart="29502.00" from="1210159390#1" to="24806974#4"/>
    <trip id="352" depart="29504.00" from="24806974#1" to="25562603#2"/>
    <trip id="353" depart="29506.00" from="25562607" to="25562603#2"/>
    <trip id="354" depart="29508.00" from="1210159391#2" to="1119115695#0"/>
    <trip id="355" depart="29510.00" from="25556716#2" to="25556716#3"/>
    <trip id="356" depart="29512.00" from="25562609#1" to="-24806974#0"/>
    <trip id="357" depart="29514.00" from="-24806974#3" to="24805912#0"/>
    <trip id="358" depart="29516.00" from="25556721#0" to="1358218932#1"/>
    <trip id="359" depart="29518.00" from="-25556713#0" to="24805912#0"/>
    <trip id="360" depart="29520.00" from="25562609#1" to="1358218933"/>
    <trip id="361" depart="29522.00" from="24806974#5" to="37282390#0"/>
    <trip id="362" depart="29524.00" from="-24806974#1" to="25556723#1"/>
    <trip id="363" depart="29526.00" from="-749043950#2" to="1210159390#1"/>
    <trip id="364" depart="29528.00" from="-25556723#1" to="-24806974#4"/>
    <trip id="365" depart="29530.00" from="25562609#1" to="24805591#7"/>
    <trip id="366" depart="29532.00" from="-25562609#1" to="37282390#0"/>
    <trip id="367" depart="29534.00" from="-25556716#2" to="1358218935"/>
    <trip id="368" depart="29536.00" from="-25562615" to="-25562615"/>
    <trip id="369" depart="29538.00" from="-1119115695#0" to="25556723#1"/>
    <trip id="370" depart="29540.00" from="-25556723#0" to="1358218933"/>
    <trip id="371" depart="29542.00" from="1210159390#1" to="24805591#4"/>
    <trip id="372" depart="29544.00" from="24806974#0" to="1358218932#0"/>
    <trip id="373" depart="29546.00" from="-25562615" to="25562603#1"/>
    <trip id="374" depart="29548.00" from="-25562603#0" to="1210159391#0"/>
    <trip id="375" depart="29550.00" from="837911243" to="-749043950#2"/>
    <trip id="376" depart="29552.00" from="749043950#2" to="24806974#1"/>
    <trip id="377" depart="29554.00" from="-749043950#1" to="24805591#2"/>
    <trip id="378" depart="29556.00" from="24806974#5" to="25556716#2"/>
    <trip id="379" depart="29558.00" from="-24806974#1" to="24805591#6"/>
    <trip id="380" depart="29560.00" from="228979748#1" to="37282390#0"/>
    <trip id="381" depart="29562.00" from="-749043950#2" to="25556723#1"/>
    <trip id="382" depart="29564.00" from="24806974#0" to="24805591#7"/>
    <trip id="383" depart="29566.00" from="24806974#4" to="25556716#0"/>
    <trip id="384" depart="29568.00" from="24806974#2" to="25562603#0"/>
    <trip id="385" depart="29570.00" from="24806967" to="37282390#0"/>
    <trip id="386" depart="29572.00" from="24806974#1" to="1035804763"/>
    <trip id="387" depart="29574.00" from="1358218935" to="24805591#3"/>
    <trip id="388" depart="29576.00" from="25556716#3" to="-24806974#5"/>
    <trip id="389" depart="29578.00" from="1035804763" to="25556716#2"/>
    <trip id="390" depart="29580.00" from="-25556723#2" to="-25556716#2"/>
    <trip id="391" depart="29582.00" from="24805591#1" to="37282390#0"/>
    <trip id="392" depart="29584.00" from="25562603#1" to="-25562615"/>
    <trip id="393" depart="29586.00" from="25562603#0" to="1381694704#1"/>
    <trip id="394" depart="29588.00" from="25562600#1" to="25556716#2"/>
    <trip id="395" depart="29590.00" from="1210159390#1" to="-25556716#0"/>
    <trip id="396" depart="29592.00" from="749043950#1" to="-25556723#0"/>
    <trip id="397" depart="29594.00" from="749043950#1" to="25562603#2"/>
    <trip id="398" depart="29596.00" from="25556716#2" to="785064311"/>