<?xml version="1.0" encoding="UTF-8"?>

<!-- generated on 2026-04-30 16:19:31 by Eclipse SUMO netconvert Version 1.24.0
<netconvertConfiguration xmlns:xsi="http://www.w3.org/2001/XMLSchema-instance" xsi:noNamespaceSchemaLocation="http://sumo.dlr.de/xsd/netconvertConfiguration.xsd">

    <input>
        <osm-files value="simulation/taksim/taksim.osm"/>
    </input>

    <output>
        <output-file value="simulation/taksim/taksim.net.xml"/>
    </output>

    <projection>
        <proj.utm value="true"/>
    </projection>

    <processing>
        <geometry.remove value="true"/>
        <roundabouts.guess value="true"/>
    </processing>

    <tls_building>
        <tls.guess value="true"/>
        <tls.guess.threshold value="0"/>
        <tls.guess.joining value="true"/>
        <tls.default-type value="actuated"/>
    </tls_building>

    <ramp_guessing>
        <ramps.guess value="true"/>
    </ramp_guessing>

    <junctions>
        <junctions.join value="true"/>
    </junctions>

    <report>
        <no-warnings value="true"/>
    </report>

</netconvertConfiguration>
-->

<net version="1.20" junctionCornerDetail="5" limitTurnSpeed="5.50" xmlns:xsi="http://www.w3.org/2001/XMLSchema-instance" xsi:noNamespaceSchemaLocation="http://sumo.dlr.de/xsd/net_file.xsd">

    <location netOffset="-665993.32,-4543798.24" convBoundary="0.00,0.00,3354.97,5343.91" origBoundary="28.961705,41.028495,29.015777,41.075937" projParameter="+proj=utm +zone=35 +ellps=WGS84 +datum=WGS84 +units=m +no_defs"/>

    <type id="highway.footway" priority="1" numLanes="1" speed="2.78" allow="pedestrian" oneway="1" width="2.00"/>
    <type id="highway.living_street" priority="2" numLanes="1" speed="2.78" disallow="tram rail_urban rail rail_electric rail_fast ship container cable_car subway aircraft wheelchair scooter drone" oneway="0"/>
    <type id="highway.pedestrian" priority="1" numLanes="1" speed="2.78" allow="pedestrian" oneway="1" width="2.00"/>
    <type id="highway.primary" priority="12" numLanes="2" speed="27.78" disallow="tram rail_urban rail rail_electric rail_fast ship container cable_car subway aircraft wheelchair scooter drone" oneway="0"/>
    <type id="highway.primary_link" priority="7" numLanes="1" speed="22.22" disallow="tram rail_urban rail rail_electric rail_fast ship container cable_car subway aircraft wheelchair scooter drone" oneway="0"/>
    <type id="highway.residential" priority="3" numLanes="1" speed="13.89" disallow="tram rail_urban rail rail_electric rail_fast ship container cable_car subway aircraft wheelchair scooter drone" oneway="0"/>
    <type id="highway.secondary" priority="11" numLanes="1" speed="27.78" disallow="tram rail_urban rail rail_electric rail_fast ship container cable_car subway aircraft wheelchair scooter drone" oneway="0"/>
    <type id="highway.secondary_link" priority="6" numLanes="1" speed="22.22" disallow="tram rail_urban rail rail_electric rail_fast ship container cable_car subway aircraft wheelchair scooter drone" oneway="0"/>
    <type id="highway.service" priority="1" numLanes="1" speed="5.56" allow="pedestrian delivery bicycle" oneway="0"/>
    <type id="highway.steps" priority="1" numLanes="1" speed="1.39" allow="pedestrian" oneway="1" width="2.00"/>
    <type id="railway.subway" priority="18" numLanes="1" speed="27.78" allow="subway" oneway="1"/>
    <type id="railway.tram" priority="17" numLanes="1" speed="13.89" allow="tram" oneway="1"/>

    <edge id=":105404353_0" function="internal">
        <lane id=":105404353_0_0" index="0" disallow="tram rail_urban rail rail_electric rail_fast ship container cable_car subway aircraft wheelchair scooter drone" speed="12.27" length="4.52" shape="1045.57,885.93 1046.04,884.89 1046.28,884.13 1046.38,883.35 1046.43,882.20"/>
        <lane id=":105404353_0_1" index="1" disallow="tram rail_urban rail rail_electric rail_fast ship container cable_car subway aircraft wheelchair scooter drone" speed="14.15" length="4.52" shape="1048.46,887.30 1049.09,885.90 1049.42,884.90 1049.56,883.85 1049.63,882.32"/>
    </edge>
    <edge id=":105404354_0" function="internal">
        <lane id=":105404354_0_0" index="0" disallow="tram rail_urban rail rail_electric rail_fast ship container cable_car subway aircraft wheelchair scooter drone" speed="27.78" length="0.23" shape="1057.21,826.48 1057.28,826.25"/>
        <lane id=":105404354_0_1" index="1" disallow="tram rail_urban rail rail_electric rail_fast ship container cable_car subway aircraft wheelchair scooter drone" speed="27.78" length="0.23" shape="1060.21,827.60 1060.27,827.39"/>
    </edge>
    <edge id=":105404369_0" function="internal">
        <lane id=":105404369_0_0" index="0" disallow="tram rail_urban rail rail_electric rail_fast ship container cable_car subway aircraft wheelchair scooter drone" speed="8.33" length="0.10" shape="1355.05,974.19 1355.12,974.23"/>
        <lane id=":105404369_0_1" index="1" disallow="tram rail_urban rail rail_electric rail_fast ship container cable_car subway aircraft wheelchair scooter drone" speed="8.33" length="0.10" shape="1356.76,971.48 1356.69,971.44"/>
    </edge>
    <edge id=":12569631079_0" function="internal">
        <lane id=":12569631079_0_0" index="0" disallow="tram rail_urban rail rail_electric rail_fast ship container cable_car subway aircraft wheelchair scooter drone" speed="13.70" length="5.39" shape="1038.74,921.49 1037.22,921.23 1036.15,921.41 1035.07,921.80 1033.50,922.16"/>
    </edge>
    <edge id=":12569631079_1" function="internal">
        <lane id=":12569631079_1_0" index="0" disallow="tram rail_urban rail rail_electric rail_fast ship container cable_car subway aircraft wheelchair scooter drone" speed="8.64" length="5.43" shape="1038.74,921.49 1037.30,920.92 1036.46,920.22 1035.82,919.25 1034.96,917.87"/>
    </edge>
    <edge id=":12613130098_0" function="internal">
        <lane id=":12613130098_0_0" index="0" disallow="tram rail_urban rail rail_electric rail_fast ship container cable_car subway aircraft wheelchair scooter drone" speed="27.78" length="5.00" shape="1089.12,1053.12 1088.04,1048.24"/>
    </edge>
    <edge id=":12613130098_1" function="internal">
        <lane id=":12613130098_1_0" index="0" disallow="tram rail_urban rail rail_electric rail_fast ship container cable_car subway aircraft wheelchair scooter drone" speed="27.78" length="5.00" shape="1091.16,1047.54 1092.24,1052.43"/>
    </edge>
    <edge id=":12613165122_0" function="internal">
        <lane id=":12613165122_0_0" index="0" allow="pedestrian delivery bicycle" speed="3.65" length="4.67" shape="916.09,1052.63 914.77,1052.05 914.23,1051.34 914.49,1050.48 915.53,1049.48"/>
    </edge>
    <edge id=":13137905222_0" function="internal">
        <lane id=":13137905222_0_0" index="0" allow="tram" speed="13.89" length="6.64" shape="793.99,894.12 789.99,899.42"/>
    </edge>
    <edge id=":1450800222_0" function="internal">
        <lane id=":1450800222_0_0" index="0" disallow="tram rail_urban rail rail_electric rail_fast ship container cable_car subway aircraft wheelchair scooter drone" speed="9.39" length="4.02" shape="984.49,800.92 983.55,801.67 982.95,802.33 982.30,802.81 981.20,803.01"/>
    </edge>
    <edge id=":1450800222_1" function="internal">
        <lane id=":1450800222_1_0" index="0" disallow="tram rail_urban rail rail_electric rail_fast ship container cable_car subway aircraft wheelchair scooter drone" speed="7.47" length="2.47" shape="981.15,799.81 981.77,799.63 982.06,799.21 982.32,798.69 982.84,798.18"/>
    </edge>
    <edge id=":1665037863_0" function="internal">
        <lane id=":1665037863_0_0" index="0" disallow="tram rail_urban rail rail_electric rail_fast ship container cable_car subway aircraft wheelchair scooter drone" speed="13.89" length="5.01" shape="1008.96,659.20 1011.19,654.72"/>
    </edge>
    <edge id=":1665037907_0" function="internal">
        <lane id=":1665037907_0_0" index="0" disallow="tram rail_urban rail rail_electric rail_fast ship container cable_car subway aircraft wheelchair scooter drone" speed="13.89" length="5.01" shape="1056.87,673.79 1054.63,678.26"/>
    </edge>
    <edge id=":1665037907_1" function="internal">
        <lane id=":1665037907_1_0" index="0" disallow="tram rail_urban rail rail_electric rail_fast ship container cable_car subway aircraft wheelchair scooter drone" speed="13.89" length="5.01" shape="1051.77,676.83 1054.01,672.36"/>
    </edge>
    <edge id=":1942466952_0" function="internal">
        <lane id=":1942466952_0_0" index="0" disallow="tram rail_urban rail rail_electric rail_fast ship container cable_car subway aircraft wheelchair scooter drone" speed="3.65" length="4.67" shape="986.32,826.72 986.72,828.10 986.51,828.97 985.69,829.32 984.25,829.16"/>
    </edge>
    <edge id=":1942468367_0" function="internal">
        <lane id=":1942468367_0_0" index="0" disallow="tram rail_urban rail rail_electric rail_fast ship container cable_car subway aircraft wheelchair scooter drone" speed="3.65" length="4.67" shape="1007.98,801.33 1006.56,801.61 1005.71,801.32 1005.44,800.47 1005.73,799.06"/>
    </edge>
    <edge id=":2263863893_0" function="internal">
        <lane id=":2263863893_0_0" index="0" allow="pedestrian delivery bicycle" speed="6.12" length="7.65" shape="957.06,767.20 956.28,766.10 956.24,764.59 956.95,762.67 958.40,760.34"/>
    </edge>
    <edge id=":2263863893_1" function="internal">
        <lane id=":2263863893_1_0" index="0" allow="pedestrian delivery bicycle" speed="3.65" length="4.67" shape="957.06,767.20 956.60,765.83 956.78,764.96 957.59,764.57 959.03,764.68"/>
    </edge>
    <edge id=":2263863893_2" function="internal">
        <lane id=":2263863893_2_0" index="0" disallow="tram rail_urban rail rail_electric rail_fast ship container cable_car subway aircraft wheelchair scooter drone" speed="13.89" length="9.20" shape="952.56,767.42 954.42,765.43 955.66,764.03 956.80,762.55 958.40,760.34"/>
    </edge>
    <edge id=":2263863893_3" function="internal">
        <lane id=":2263863893_3_0" index="0" allow="pedestrian delivery bicycle" speed="6.24" length="7.62" shape="952.56,767.42 954.55,765.57 956.29,764.49 957.78,764.20 959.03,764.68"/>
    </edge>
    <edge id=":2263863897_0" function="internal">
        <lane id=":2263863897_0_0" index="0" disallow="tram rail_urban rail rail_electric rail_fast ship container cable_car subway aircraft wheelchair scooter drone" speed="13.89" length="10.24" shape="995.82,788.49 994.35,791.12 993.25,792.92 992.01,794.64 990.14,796.99"/>
    </edge>
    <edge id=":2263863897_1" function="internal">
        <lane id=":2263863897_1_0" index="0" allow="pedestrian delivery bicycle" speed="6.75" length="3.45" shape="995.82,788.49 993.96,790.94 993.62,791.11"/>
    </edge>
    <edge id=":2263863897_7" function="internal">
        <lane id=":2263863897_7_0" index="0" allow="pedestrian delivery bicycle" speed="6.75" length="7.50" shape="993.62,791.11 991.83,792.06 989.43,791.86 986.77,790.34"/>
    </edge>
    <edge id=":2263863897_2" function="internal">
        <lane id=":2263863897_2_0" index="0" allow="pedestrian delivery bicycle" speed="4.89" length="5.19" shape="988.73,787.81 990.00,788.53 991.13,788.63 992.14,788.10 993.03,786.94"/>
    </edge>
    <edge id=":2263863897_3" function="internal">
        <lane id=":2263863897_3_0" index="0" allow="pedestrian delivery bicycle" speed="6.97" length="10.63" shape="988.73,787.81 990.85,789.97 991.79,792.21 991.56,794.56 990.14,796.99"/>
    </edge>
    <edge id=":2263863897_4" function="internal">
        <lane id=":2263863897_4_0" index="0" allow="pedestrian delivery bicycle" speed="3.65" length="1.44" shape="988.73,787.81 989.19,789.18"/>
    </edge>
    <edge id=":2263863897_8" function="internal">
        <lane id=":2263863897_8_0" index="0" allow="pedestrian delivery bicycle" speed="3.65" length="3.23" shape="989.19,789.18 989.01,790.06 988.20,790.44 986.77,790.34"/>
    </edge>
    <edge id=":2263863897_5" function="internal">
        <lane id=":2263863897_5_0" index="0" allow="pedestrian delivery bicycle" speed="5.18" length="5.41" shape="987.65,794.99 988.33,793.78 988.41,792.61 987.89,791.46 986.77,790.34"/>
    </edge>
    <edge id=":2263863897_6" function="internal">
        <lane id=":2263863897_6_0" index="0" disallow="tram rail_urban rail rail_electric rail_fast ship container cable_car subway aircraft wheelchair scooter drone" speed="13.89" length="9.70" shape="987.65,794.99 989.44,792.73 990.59,791.13 991.62,789.45 993.03,786.94"/>
    </edge>
    <edge id=":2332311223_0" function="internal">
        <lane id=":2332311223_0_0" index="0" disallow="tram rail_urban rail rail_electric rail_fast ship container cable_car subway aircraft wheelchair scooter drone" speed="18.06" length="14.09" shape="1057.16,900.22 1056.37,903.44 1055.97,906.37 1055.79,909.72 1055.65,914.18"/>
    </edge>
    <edge id=":2332311223_1" function="internal">
        <lane id=":2332311223_1_0" index="0" disallow="pedestrian tram rail_urban rail rail_electric rail_fast ship container cable_car subway aircraft wheelchair scooter drone" speed="10.88" length="13.05" shape="1050.06,901.65 1052.60,904.12 1054.38,907.03 1055.40,910.38 1055.65,914.18"/>
        <lane id=":2332311223_1_1" index="1" disallow="pedestrian tram rail_urban rail rail_electric rail_fast ship container cable_car subway aircraft wheelchair scooter drone" speed="9.95" length="13.05" shape="1047.58,903.79 1049.79,905.89 1051.34,908.30 1052.22,911.03 1052.45,914.08"/>
    </edge>
    <edge id=":2333203943_0" function="internal">
        <lane id=":2333203943_0_0" index="0" disallow="tram rail_urban rail rail_electric rail_fast ship container cable_car subway aircraft wheelchair scooter drone" speed="9.28" length="5.22" shape="995.96,916.80 995.56,915.33 995.49,914.26 995.70,913.20 996.17,911.72"/>
    </edge>
    <edge id=":2333203943_1" function="internal">
        <lane id=":2333203943_1_0" index="0" disallow="tram rail_urban rail rail_electric rail_fast ship container cable_car subway aircraft wheelchair scooter drone" speed="7.78" length="3.58" shape="999.22,912.68 998.91,913.69 998.78,914.42 998.84,915.15 999.12,916.16"/>
    </edge>
    <edge id=":2333203943_2" function="internal">
        <lane id=":2333203943_2_0" index="0" allow="pedestrian delivery bicycle" speed="6.69" length="5.65" shape="992.48,915.66 993.70,915.18 994.72,914.36 995.55,913.21 996.17,911.72"/>
    </edge>
    <edge id=":2333203943_3" function="internal">
        <lane id=":2333203943_3_0" index="0" allow="pedestrian delivery bicycle" speed="6.00" length="7.08" shape="992.48,915.66 995.15,915.16 997.15,915.07 998.47,915.41 999.12,916.16"/>
    </edge>
    <edge id=":2333203950_0" function="internal">
        <lane id=":2333203950_0_0" index="0" disallow="tram rail_urban rail rail_electric rail_fast ship container cable_car subway aircraft wheelchair scooter drone" speed="27.78" length="6.72" shape="957.86,938.24 951.29,938.86"/>
        <lane id=":2333203950_0_1" index="1" disallow="tram rail_urban rail rail_electric rail_fast ship container cable_car subway aircraft wheelchair scooter drone" speed="27.78" length="6.72" shape="957.62,935.05 950.80,935.70"/>
    </edge>
    <edge id=":2333203950_2" function="internal">
        <lane id=":2333203950_2_0" index="0" allow="pedestrian delivery bicycle" speed="5.78" length="2.48" shape="957.62,935.05 955.15,934.80"/>
    </edge>
    <edge id=":2333203950_5" function="internal">
        <lane id=":2333203950_5_0" index="0" allow="pedestrian delivery bicycle" speed="5.78" length="7.22" shape="955.15,934.80 953.89,933.60 953.83,931.44 954.99,928.32"/>
    </edge>
    <edge id=":2333203950_3" function="internal">
        <lane id=":2333203950_3_0" index="0" allow="pedestrian delivery bicycle" speed="7.48" length="6.54" shape="950.30,932.54 951.66,932.11 952.90,931.26 954.00,930.00 954.99,928.32"/>
    </edge>
    <edge id=":2333203950_4" function="internal">
        <lane id=":2333203950_4_0" index="0" disallow="tram rail_urban rail rail_electric rail_fast ship container cable_car subway aircraft wheelchair scooter drone" speed="27.78" length="7.11" shape="950.30,932.54 957.38,931.86"/>
    </edge>
    <edge id=":2377620756_0" function="internal">
        <lane id=":2377620756_0_0" index="0" disallow="tram rail_urban rail rail_electric rail_fast ship container cable_car subway aircraft wheelchair scooter drone" speed="3.65" length="4.67" shape="771.42,527.92 771.55,526.49 772.07,525.75 772.96,525.73 774.24,526.40"/>
    </edge>
    <edge id=":255088964_0" function="internal">
        <lane id=":255088964_0_0" index="0" disallow="tram rail_urban rail rail_electric rail_fast ship container cable_car subway aircraft wheelchair scooter drone" speed="27.78" length="8.67" shape="831.41,715.68 830.88,707.03"/>
    </edge>
    <edge id=":255088964_1" function="internal">
        <lane id=":255088964_1_0" index="0" disallow="tram rail_urban rail rail_electric rail_fast ship container cable_car subway aircraft wheelchair scooter drone" speed="3.65" length="1.44" shape="831.41,715.68 832.12,714.43"/>
    </edge>
    <edge id=":255088964_6" function="internal">
        <lane id=":255088964_6_0" index="0" disallow="tram rail_urban rail rail_electric rail_fast ship container cable_car subway aircraft wheelchair scooter drone" speed="3.65" length="3.23" shape="832.12,714.43 832.90,713.98 833.72,714.32 834.60,715.47"/>
    </edge>
    <edge id=":255088964_2" function="internal">
        <lane id=":255088964_2_0" index="0" disallow="tram rail_urban rail rail_electric rail_fast ship container cable_car subway aircraft wheelchair scooter drone" speed="27.78" length="8.56" shape="834.08,706.92 834.60,715.47"/>
    </edge>
    <edge id=":255088964_3" function="internal">
        <lane id=":255088964_3_0" index="0" disallow="tram rail_urban rail rail_electric rail_fast ship container cable_car subway aircraft wheelchair scooter drone" speed="3.65" length="1.44" shape="834.08,706.92 833.32,708.15"/>
    </edge>
    <edge id=":255088964_7" function="internal">
        <lane id=":255088964_7_0" index="0" disallow="tram rail_urban rail rail_electric rail_fast ship container cable_car subway aircraft wheelchair scooter drone" speed="3.65" length="3.23" shape="833.32,708.15 832.53,708.57 831.72,708.20 830.88,707.03"/>
    </edge>
    <edge id=":255088964_4" function="internal">
        <lane id=":255088964_4_0" index="0" disallow="tram rail_urban rail rail_electric rail_fast ship container cable_car subway aircraft wheelchair scooter drone" speed="9.34" length="8.16" shape="827.29,714.13 828.90,712.26 830.04,710.45 830.70,708.71 830.88,707.03"/>
    </edge>
    <edge id=":255088964_5" function="internal">
        <lane id=":255088964_5_0" index="0" disallow="tram rail_urban rail rail_electric rail_fast ship container cable_car subway aircraft wheelchair scooter drone" speed="5.95" length="11.39" shape="827.29,714.13 830.28,711.61 832.49,710.99 833.93,712.28 834.60,715.47"/>
    </edge>
    <edge id=":2675860313_0" function="internal">
        <lane id=":2675860313_0_0" index="0" disallow="tram rail_urban rail rail_electric rail_fast ship container cable_car subway aircraft wheelchair scooter drone" speed="13.89" length="5.07" shape="1041.58,803.30 1037.33,806.07"/>
    </edge>
    <edge id=":2675860313_1" function="internal">
        <lane id=":2675860313_1_0" index="0" disallow="tram rail_urban rail rail_electric rail_fast ship container cable_car subway aircraft wheelchair scooter drone" speed="13.89" length="5.07" shape="1035.58,803.39 1039.84,800.62"/>
    </edge>
    <edge id=":2675860345_0" function="internal">
        <lane id=":2675860345_0_0" index="0" disallow="tram rail_urban rail rail_electric rail_fast ship container cable_car subway aircraft wheelchair scooter drone" speed="2.78" length="5.15" shape="920.52,760.23 921.27,755.14"/>
    </edge>
    <edge id=":269486093_0" function="internal">
        <lane id=":269486093_0_0" index="0" disallow="tram rail_urban rail rail_electric rail_fast ship container cable_car subway aircraft wheelchair scooter drone" speed="27.78" length="9.78" shape="1065.78,988.41 1062.00,979.39"/>
    </edge>
    <edge id=":269486093_1" function="internal">
        <lane id=":269486093_1_0" index="0" allow="pedestrian delivery bicycle" speed="6.73" length="3.63" shape="1065.78,988.41 1064.91,985.39 1064.98,984.91"/>
    </edge>
    <edge id=":269486093_7" function="internal">
        <lane id=":269486093_7_0" index="0" allow="pedestrian delivery bicycle" speed="6.73" length="7.53" shape="1064.98,984.91 1065.30,982.99 1066.96,981.21 1069.88,980.05"/>
    </edge>
    <edge id=":269486093_2" function="internal">
        <lane id=":269486093_2_0" index="0" allow="pedestrian delivery bicycle" speed="4.86" length="5.24" shape="1070.62,983.16 1069.25,983.71 1068.47,984.54 1068.28,985.67 1068.69,987.09"/>
    </edge>
    <edge id=":269486093_3" function="internal">
        <lane id=":269486093_3_0" index="0" allow="pedestrian delivery bicycle" speed="7.28" length="10.44" shape="1070.62,983.16 1067.61,983.52 1065.17,983.01 1063.30,981.63 1062.00,979.39"/>
    </edge>
    <edge id=":269486093_4" function="internal">
        <lane id=":269486093_4_0" index="0" allow="pedestrian delivery bicycle" speed="3.65" length="4.67" shape="1070.62,983.16 1069.27,982.66 1068.70,981.98 1068.90,981.11 1069.88,980.05"/>
    </edge>
    <edge id=":269486093_5" function="internal">
        <lane id=":269486093_5_0" index="0" allow="pedestrian delivery bicycle" speed="5.59" length="5.76" shape="1064.99,978.25 1065.68,979.39 1066.73,980.06 1068.13,980.28 1069.88,980.05"/>
    </edge>
    <edge id=":269486093_6" function="internal">
        <lane id=":269486093_6_0" index="0" disallow="tram rail_urban rail rail_electric rail_fast ship container cable_car subway aircraft wheelchair scooter drone" speed="27.78" length="9.58" shape="1064.99,978.25 1068.69,987.09"/>
    </edge>
    <edge id=":269500161_0" function="internal">
        <lane id=":269500161_0_0" index="0" disallow="tram rail_urban rail rail_electric rail_fast ship container cable_car subway aircraft wheelchair scooter drone" speed="4.71" length="5.14" shape="925.24,798.34 924.23,797.17 923.91,796.09 924.27,795.08 925.32,794.16"/>
    </edge>
    <edge id=":269500161_1" function="internal">
        <lane id=":269500161_1_0" index="0" disallow="tram rail_urban rail rail_electric rail_fast ship container cable_car subway aircraft wheelchair scooter drone" speed="13.89" length="5.68" shape="920.24,796.62 921.84,796.10 922.90,795.65 923.90,795.07 925.32,794.16"/>
    </edge>
    <edge id=":269501556_0" function="internal">
        <lane id=":269501556_0_0" index="0" allow="pedestrian delivery bicycle" speed="3.65" length="4.67" shape="1184.55,1151.09 1185.50,1152.18 1185.68,1153.06 1185.08,1153.72 1183.71,1154.18"/>
    </edge>
    <edge id=":269514409_0" function="internal">
        <lane id=":269514409_0_0" index="0" disallow="tram rail_urban rail rail_electric rail_fast ship container cable_car subway aircraft wheelchair scooter drone" speed="2.78" length="5.56" shape="911.25,670.29 910.68,671.83 910.40,672.93 910.27,674.06 910.17,675.70"/>
    </edge>
    <edge id=":269514435_0" function="internal">
        <lane id=":269514435_0_0" index="0" disallow="tram rail_urban rail rail_electric rail_fast ship container cable_car subway aircraft wheelchair scooter drone" speed="2.78" length="5.04" shape="947.42,691.85 949.45,687.23"/>
    </edge>
    <edge id=":269515084_0" function="internal">
        <lane id=":269515084_0_0" index="0" disallow="tram rail_urban rail rail_electric rail_fast ship container cable_car subway aircraft wheelchair scooter drone" speed="3.65" length="4.67" shape="1183.71,631.98 1185.05,632.51 1185.61,633.20 1185.39,634.07 1184.39,635.10"/>
    </edge>
    <edge id=":269515490_0" function="internal">
        <lane id=":269515490_0_0" index="0" disallow="tram rail_urban rail rail_electric rail_fast ship container cable_car subway aircraft wheelchair scooter drone" speed="13.89" length="5.02" shape="1074.59,718.64 1072.21,723.06"/>
    </edge>
    <edge id=":269515490_1" function="internal">
        <lane id=":269515490_1_0" index="0" disallow="tram rail_urban rail rail_electric rail_fast ship container cable_car subway aircraft wheelchair scooter drone" speed="13.89" length="4.82" shape="1069.42,721.48 1071.71,717.24"/>
    </edge>
    <edge id=":269515547_0" function="internal">
        <lane id=":269515547_0_0" index="0" disallow="tram rail_urban rail rail_electric rail_fast ship container cable_car subway aircraft wheelchair scooter drone" speed="3.65" length="4.67" shape="1076.40,627.54 1077.66,626.82 1078.55,626.82 1079.09,627.54 1079.27,628.97"/>
    </edge>
    <edge id=":278335467_0" function="internal">
        <lane id=":278335467_0_0" index="0" disallow="tram rail_urban rail rail_electric rail_fast ship container cable_car subway aircraft wheelchair scooter drone" speed="2.78" length="8.69" shape="926.19,726.97 928.57,727.41 930.57,727.06 932.17,725.92 933.38,723.99"/>
    </edge>
    <edge id=":278335467_1" function="internal">
        <lane id=":278335467_1_0" index="0" disallow="tram rail_urban rail rail_electric rail_fast ship container cable_car subway aircraft wheelchair scooter drone" speed="2.78" length="10.50" shape="929.09,733.57 933.38,723.99"/>
    </edge>
    <edge id=":278538658_0" function="internal">
        <lane id=":278538658_0_0" index="0" disallow="tram rail_urban rail rail_electric rail_fast ship container cable_car subway aircraft wheelchair scooter drone" speed="3.65" length="4.67" shape="1165.30,1231.09 1164.84,1232.46 1164.18,1233.06 1163.30,1232.89 1162.21,1231.94"/>
    </edge>
    <edge id=":278558100_0" function="internal">
        <lane id=":278558100_0_0" index="0" disallow="tram rail_urban rail rail_electric rail_fast ship container cable_car subway aircraft wheelchair scooter drone" speed="27.78" length="4.76" shape="1059.66,973.24 1059.16,971.92 1058.87,970.99 1058.63,970.05 1058.33,968.67"/>
    </edge>
    <edge id=":278558100_1" function="internal">
        <lane id=":278558100_1_0" index="0" disallow="tram rail_urban rail rail_electric rail_fast ship container cable_car subway aircraft wheelchair scooter drone" speed="27.78" length="4.29" shape="1061.46,967.99 1061.73,969.23 1061.94,970.08 1062.21,970.91 1062.65,972.10"/>
    </edge>
    <edge id=":278558186_0" function="internal">
        <lane id=":278558186_0_0" index="0" disallow="tram rail_urban rail rail_electric rail_fast ship container cable_car subway aircraft wheelchair scooter drone" speed="6.19" length="9.05" shape="1115.16,808.54 1114.17,806.20 1112.69,804.87 1110.73,804.54 1108.29,805.22"/>
    </edge>
    <edge id=":278558186_1" function="internal">
        <lane id=":278558186_1_0" index="0" disallow="tram rail_urban rail rail_electric rail_fast ship container cable_car subway aircraft wheelchair scooter drone" speed="3.65" length="1.44" shape="1115.16,808.54 1115.63,807.17"/>
    </edge>
    <edge id=":278558186_5" function="internal">
        <lane id=":278558186_5_0" index="0" disallow="tram rail_urban rail rail_electric rail_fast ship container cable_car subway aircraft wheelchair scooter drone" speed="3.65" length="3.23" shape="1115.63,807.17 1116.30,806.58 1117.17,806.77 1118.25,807.72"/>
    </edge>
    <edge id=":278558186_2" function="internal">
        <lane id=":278558186_2_0" index="0" disallow="tram rail_urban rail rail_electric rail_fast ship container cable_car subway aircraft wheelchair scooter drone" speed="6.28" length="9.14" shape="1122.51,801.22 1120.08,801.91 1118.56,803.23 1117.95,805.17 1118.25,807.72"/>
    </edge>
    <edge id=":278558186_3" function="internal">
        <lane id=":278558186_3_0" index="0" disallow="tram rail_urban rail rail_electric rail_fast ship container cable_car subway aircraft wheelchair scooter drone" speed="8.33" length="15.31" shape="1122.51,801.22 1118.15,801.84 1115.19,802.47 1112.33,803.48 1108.29,805.22"/>
        <lane id=":278558186_3_1" index="1" disallow="tram rail_urban rail rail_electric rail_fast ship container cable_car subway aircraft wheelchair scooter drone" speed="8.33" length="15.31" shape="1122.08,798.05 1117.46,798.70 1114.32,799.38 1111.29,800.44 1107.00,802.29"/>
    </edge>
    <edge id=":278615574_0" function="internal">
        <lane id=":278615574_0_0" index="0" disallow="tram rail_urban rail rail_electric rail_fast ship container cable_car subway aircraft wheelchair scooter drone" speed="6.57" length="7.58" shape="1101.23,747.85 1099.46,746.87 1097.72,746.58 1095.99,746.98 1094.28,748.06"/>
    </edge>
    <edge id=":278615574_1" function="internal">
        <lane id=":278615574_1_0" index="0" disallow="tram rail_urban rail rail_electric rail_fast ship container cable_car subway aircraft wheelchair scooter drone" speed="8.08" length="11.92" shape="1092.22,745.62 1094.90,743.91 1097.61,743.29 1100.36,743.74 1103.14,745.28"/>
    </edge>
    <edge id=":278615578_0" function="internal">
        <lane id=":278615578_0_0" index="0" disallow="tram rail_urban rail rail_electric rail_fast ship container cable_car subway aircraft wheelchair scooter drone" speed="13.89" length="4.92" shape="1025.08,829.53 1023.59,834.22"/>
    </edge>
    <edge id=":278615578_1" function="internal">
        <lane id=":278615578_1_0" index="0" disallow="tram rail_urban rail rail_electric rail_fast ship container cable_car subway aircraft wheelchair scooter drone" speed="13.89" length="4.98" shape="1020.53,833.29 1022.03,828.54"/>
    </edge>
    <edge id=":278615579_0" function="internal">
        <lane id=":278615579_0_0" index="0" disallow="tram rail_urban rail rail_electric rail_fast ship container cable_car subway aircraft wheelchair scooter drone" speed="13.89" length="14.45" shape="1018.65,850.46 1014.39,864.27"/>
    </edge>
    <edge id=":278615579_1" function="internal">